/*---------------------------------------------------------------------------*\
| =========                 |                                                 |
| \\      /  F ield         | OpenFOAM: The Open Source CFD Toolbox           |
|  \\    /   O peration     | Version:  5.x                                   |
|   \\  /    A nd           | Web:      www.OpenFOAM.org                      |
|    \\/     M anipulation  |                                                 |
\*---------------------------------------------------------------------------*/
Build  : 5.x-e5a3a31049cb
Exec   : myelectrostaticFoam
Date   : May 22 2018
Time   : 21:10:05
Host   : "g"
PID    : 6756
I/O    : uncollated
Case   : /home/g/Documents/electromagnetics/article/example/0
nProcs : 1
sigFpe : Enabling floating point exception trapping (FOAM_SIGFPE).
fileModificationChecking : Monitoring run-time modified files using timeStampMaster (fileModificationSkew 10)
allowSystemOperations : Allowing user-supplied system call operations

// * * * * * * * * * * * * * * * * * * * * * * * * * * * * * * * * * * * * * //
Create time

Create mesh for time = 0

Reading physicalProperties

Reading field phi

Reading field T

Reading field rho

Calculating field rhoFlux

Calculating field E

Calculating field j

Reading field p


Starting iteration loop

Iteration = 5e-05

DICPCG:  Solving for phi, Initial residual = 1, Final residual = 0.185823, No Iterations 5
smoothSolver:  Solving for rho, Initial residual = 0, Final residual = 0, No Iterations 0
DICPCG:  Solving for T, Initial residual = 1, Final residual = 6.04159e-07, No Iterations 14
ExecutionTime = 0.06 s  ClockTime = 0 s

Iteration = 0.0001

DICPCG:  Solving for phi, Initial residual = 0.291093, Final residual = 0.0577192, No Iterations 1
smoothSolver:  Solving for rho, Initial residual = 0, Final residual = 0, No Iterations 0
DICPCG:  Solving for T, Initial residual = 0.186515, Final residual = 8.52726e-07, No Iterations 12
ExecutionTime = 0.07 s  ClockTime = 0 s

Iteration = 0.00015

DICPCG:  Solving for phi, Initial residual = 0.108146, Final residual = 0.0206274, No Iterations 12
smoothSolver:  Solving for rho, Initial residual = 0, Final residual = 0, No Iterations 0
DICPCG:  Solving for T, Initial residual = 0.0974148, Final residual = 3.65686e-07, No Iterations 12
ExecutionTime = 0.09 s  ClockTime = 1 s

Iteration = 0.0002

DICPCG:  Solving for phi, Initial residual = 0.134339, Final residual = 0.0233625, No Iterations 1
smoothSolver:  Solving for rho, Initial residual = 0, Final residual = 0, No Iterations 0
DICPCG:  Solving for T, Initial residual = 0.0649002, Final residual = 9.75803e-07, No Iterations 11
ExecutionTime = 0.1 s  ClockTime = 1 s

Iteration = 0.00025

DICPCG:  Solving for phi, Initial residual = 0.0551263, Final residual = 0.010983, No Iterations 41
smoothSolver:  Solving for rho, Initial residual = 0, Final residual = 0, No Iterations 0
DICPCG:  Solving for T, Initial residual = 0.0510171, Final residual = 8.73323e-07, No Iterations 11
ExecutionTime = 0.13 s  ClockTime = 1 s

Iteration = 0.0003

DICPCG:  Solving for phi, Initial residual = 0.129391, Final residual = 0.0244546, No Iterations 1
smoothSolver:  Solving for rho, Initial residual = 0, Final residual = 0, No Iterations 0
DICPCG:  Solving for T, Initial residual = 0.0448716, Final residual = 6.8917e-07, No Iterations 11
ExecutionTime = 0.15 s  ClockTime = 1 s

Iteration = 0.00035

DICPCG:  Solving for phi, Initial residual = 0.053512, Final residual = 0.00882381, No Iterations 9
smoothSolver:  Solving for rho, Initial residual = 0, Final residual = 0, No Iterations 0
DICPCG:  Solving for T, Initial residual = 0.0410652, Final residual = 6.67823e-07, No Iterations 11
ExecutionTime = 0.17 s  ClockTime = 1 s

Iteration = 0.0004

DICPCG:  Solving for phi, Initial residual = 0.0532087, Final residual = 0.00876041, No Iterations 2
smoothSolver:  Solving for rho, Initial residual = 0, Final residual = 0, No Iterations 0
DICPCG:  Solving for T, Initial residual = 0.0372089, Final residual = 5.70887e-07, No Iterations 11
ExecutionTime = 0.18 s  ClockTime = 1 s

Iteration = 0.00045

DICPCG:  Solving for phi, Initial residual = 0.0246234, Final residual = 0.00467061, No Iterations 77
smoothSolver:  Solving for rho, Initial residual = 0, Final residual = 0, No Iterations 0
DICPCG:  Solving for T, Initial residual = 0.0381681, Final residual = 6.76254e-07, No Iterations 11
ExecutionTime = 0.23 s  ClockTime = 1 s

Iteration = 0.0005

DICPCG:  Solving for phi, Initial residual = 0.0982925, Final residual = 0.0194275, No Iterations 1
smoothSolver:  Solving for rho, Initial residual = 0, Final residual = 0, No Iterations 0
DICPCG:  Solving for T, Initial residual = 0.0366808, Final residual = 6.38122e-07, No Iterations 11
ExecutionTime = 0.24 s  ClockTime = 1 s

Iteration = 0.00055

DICPCG:  Solving for phi, Initial residual = 0.0390587, Final residual = 0.0073441, No Iterations 6
smoothSolver:  Solving for rho, Initial residual = 0, Final residual = 0, No Iterations 0
DICPCG:  Solving for T, Initial residual = 0.0349252, Final residual = 6.25216e-07, No Iterations 11
ExecutionTime = 0.26 s  ClockTime = 1 s

Iteration = 0.0006

DICPCG:  Solving for phi, Initial residual = 0.03321, Final residual = 0.00580952, No Iterations 2
smoothSolver:  Solving for rho, Initial residual = 0, Final residual = 0, No Iterations 0
DICPCG:  Solving for T, Initial residual = 0.0331091, Final residual = 6.09563e-07, No Iterations 11
ExecutionTime = 0.27 s  ClockTime = 1 s

Iteration = 0.00065

DICPCG:  Solving for phi, Initial residual = 0.0161244, Final residual = 0.00272775, No Iterations 9
smoothSolver:  Solving for rho, Initial residual = 0, Final residual = 0, No Iterations 0
DICPCG:  Solving for T, Initial residual = 0.0315051, Final residual = 5.61678e-07, No Iterations 11
ExecutionTime = 0.29 s  ClockTime = 1 s

Iteration = 0.0007

DICPCG:  Solving for phi, Initial residual = 0.0172214, Final residual = 0.00272533, No Iterations 2
smoothSolver:  Solving for rho, Initial residual = 0, Final residual = 0, No Iterations 0
DICPCG:  Solving for T, Initial residual = 0.0301499, Final residual = 5.84904e-07, No Iterations 11
ExecutionTime = 0.3 s  ClockTime = 1 s

Iteration = 0.00075

DICPCG:  Solving for phi, Initial residual = 0.00861949, Final residual = 0.00154882, No Iterations 11
smoothSolver:  Solving for rho, Initial residual = 0, Final residual = 0, No Iterations 0
DICPCG:  Solving for T, Initial residual = 0.0291926, Final residual = 5.59325e-07, No Iterations 11
ExecutionTime = 0.32 s  ClockTime = 1 s

Iteration = 0.0008

DICPCG:  Solving for phi, Initial residual = 0.0109866, Final residual = 0.00176491, No Iterations 2
smoothSolver:  Solving for rho, Initial residual = 0, Final residual = 0, No Iterations 0
DICPCG:  Solving for T, Initial residual = 0.0280524, Final residual = 5.63616e-07, No Iterations 11
ExecutionTime = 0.34 s  ClockTime = 1 s

Iteration = 0.00085

DICPCG:  Solving for phi, Initial residual = 0.00547987, Final residual = 0.00108807, No Iterations 50
smoothSolver:  Solving for rho, Initial residual = 0, Final residual = 0, No Iterations 0
DICPCG:  Solving for T, Initial residual = 0.0297836, Final residual = 5.83531e-07, No Iterations 11
ExecutionTime = 0.37 s  ClockTime = 1 s

Iteration = 0.0009

DICPCG:  Solving for phi, Initial residual = 0.0180696, Final residual = 0.00281075, No Iterations 2
smoothSolver:  Solving for rho, Initial residual = 0, Final residual = 0, No Iterations 0
DICPCG:  Solving for T, Initial residual = 0.0292257, Final residual = 5.84606e-07, No Iterations 11
ExecutionTime = 0.38 s  ClockTime = 1 s

Iteration = 0.00095

DICPCG:  Solving for phi, Initial residual = 0.00755175, Final residual = 0.00141723, No Iterations 4
smoothSolver:  Solving for rho, Initial residual = 0, Final residual = 0, No Iterations 0
DICPCG:  Solving for T, Initial residual = 0.0281287, Final residual = 5.62711e-07, No Iterations 11
ExecutionTime = 0.4 s  ClockTime = 1 s

Iteration = 0.001

DICPCG:  Solving for phi, Initial residual = 0.00534897, Final residual = 0.000985348, No Iterations 2
smoothSolver:  Solving for rho, Initial residual = 0, Final residual = 0, No Iterations 0
DICPCG:  Solving for T, Initial residual = 0.0269916, Final residual = 5.47816e-07, No Iterations 11
ExecutionTime = 0.41 s  ClockTime = 1 s

Iteration = 0.00105

DICPCG:  Solving for phi, Initial residual = 0.00269212, Final residual = 0.000536433, No Iterations 14
smoothSolver:  Solving for rho, Initial residual = 0, Final residual = 0, No Iterations 0
DICPCG:  Solving for T, Initial residual = 0.0259195, Final residual = 5.27542e-07, No Iterations 11
ExecutionTime = 0.43 s  ClockTime = 1 s

Iteration = 0.0011

DICPCG:  Solving for phi, Initial residual = 0.00379562, Final residual = 0.000581271, No Iterations 2
smoothSolver:  Solving for rho, Initial residual = 0, Final residual = 0, No Iterations 0
DICPCG:  Solving for T, Initial residual = 0.0248208, Final residual = 5.07653e-07, No Iterations 11
ExecutionTime = 0.44 s  ClockTime = 1 s

Iteration = 0.00115

DICPCG:  Solving for phi, Initial residual = 0.0018104, Final residual = 0.000331145, No Iterations 5
smoothSolver:  Solving for rho, Initial residual = 0, Final residual = 0, No Iterations 0
DICPCG:  Solving for T, Initial residual = 0.0236238, Final residual = 4.83104e-07, No Iterations 11
ExecutionTime = 0.46 s  ClockTime = 1 s

Iteration = 0.0012

DICPCG:  Solving for phi, Initial residual = 0.00150603, Final residual = 0.000278134, No Iterations 2
smoothSolver:  Solving for rho, Initial residual = 0, Final residual = 0, No Iterations 0
DICPCG:  Solving for T, Initial residual = 0.0223999, Final residual = 4.58322e-07, No Iterations 11
ExecutionTime = 0.47 s  ClockTime = 1 s

Iteration = 0.00125

DICPCG:  Solving for phi, Initial residual = 0.000855681, Final residual = 0.000160362, No Iterations 77
smoothSolver:  Solving for rho, Initial residual = 0, Final residual = 0, No Iterations 0
DICPCG:  Solving for T, Initial residual = 0.0224703, Final residual = 4.52192e-07, No Iterations 11
ExecutionTime = 0.52 s  ClockTime = 1 s

Iteration = 0.0013

DICPCG:  Solving for phi, Initial residual = 0.00379894, Final residual = 0.000571253, No Iterations 2
smoothSolver:  Solving for rho, Initial residual = 0, Final residual = 0, No Iterations 0
DICPCG:  Solving for T, Initial residual = 0.0215365, Final residual = 4.31181e-07, No Iterations 11
ExecutionTime = 0.53 s  ClockTime = 1 s

Iteration = 0.00135

DICPCG:  Solving for phi, Initial residual = 0.00158068, Final residual = 0.000291816, No Iterations 5
smoothSolver:  Solving for rho, Initial residual = 0, Final residual = 0, No Iterations 0
DICPCG:  Solving for T, Initial residual = 0.0202072, Final residual = 4.04512e-07, No Iterations 11
ExecutionTime = 0.55 s  ClockTime = 1 s

Iteration = 0.0014

DICPCG:  Solving for phi, Initial residual = 0.00114886, Final residual = 0.000195835, No Iterations 2
smoothSolver:  Solving for rho, Initial residual = 0, Final residual = 0, No Iterations 0
DICPCG:  Solving for T, Initial residual = 0.0188561, Final residual = 3.77055e-07, No Iterations 11
ExecutionTime = 0.56 s  ClockTime = 1 s

Iteration = 0.00145

DICPCG:  Solving for phi, Initial residual = 0.000598168, Final residual = 0.000116528, No Iterations 22
smoothSolver:  Solving for rho, Initial residual = 0, Final residual = 0, No Iterations 0
DICPCG:  Solving for T, Initial residual = 0.0175464, Final residual = 3.5095e-07, No Iterations 11
ExecutionTime = 0.58 s  ClockTime = 1 s

Iteration = 0.0015

DICPCG:  Solving for phi, Initial residual = 0.000921756, Final residual = 0.00014097, No Iterations 2
smoothSolver:  Solving for rho, Initial residual = 0, Final residual = 0, No Iterations 0
DICPCG:  Solving for T, Initial residual = 0.0162856, Final residual = 9.39307e-07, No Iterations 10
ExecutionTime = 0.6 s  ClockTime = 1 s

Iteration = 0.00155

DICPCG:  Solving for phi, Initial residual = 0.00042517, Final residual = 7.99976e-05, No Iterations 5
smoothSolver:  Solving for rho, Initial residual = 0, Final residual = 0, No Iterations 0
DICPCG:  Solving for T, Initial residual = 0.015061, Final residual = 8.66587e-07, No Iterations 10
ExecutionTime = 0.61 s  ClockTime = 1 s

Iteration = 0.0016

DICPCG:  Solving for phi, Initial residual = 0.000333881, Final residual = 6.16079e-05, No Iterations 2
smoothSolver:  Solving for rho, Initial residual = 0, Final residual = 0, No Iterations 0
DICPCG:  Solving for T, Initial residual = 0.0139014, Final residual = 7.96826e-07, No Iterations 10
ExecutionTime = 0.62 s  ClockTime = 1 s

Iteration = 0.00165

DICPCG:  Solving for phi, Initial residual = 0.000189168, Final residual = 3.59208e-05, No Iterations 66
smoothSolver:  Solving for rho, Initial residual = 0, Final residual = 0, No Iterations 0
DICPCG:  Solving for T, Initial residual = 0.0130367, Final residual = 7.41493e-07, No Iterations 10
ExecutionTime = 0.66 s  ClockTime = 1 s

Iteration = 0.0017

DICPCG:  Solving for phi, Initial residual = 0.000737192, Final residual = 0.000145176, No Iterations 1
smoothSolver:  Solving for rho, Initial residual = 0, Final residual = 0, No Iterations 0
DICPCG:  Solving for T, Initial residual = 0.0120551, Final residual = 6.82186e-07, No Iterations 10
ExecutionTime = 0.68 s  ClockTime = 1 s

Iteration = 0.00175

DICPCG:  Solving for phi, Initial residual = 0.000296595, Final residual = 5.23099e-05, No Iterations 4
smoothSolver:  Solving for rho, Initial residual = 0, Final residual = 0, No Iterations 0
DICPCG:  Solving for T, Initial residual = 0.0110736, Final residual = 6.24923e-07, No Iterations 10
ExecutionTime = 0.69 s  ClockTime = 1 s

Iteration = 0.0018

DICPCG:  Solving for phi, Initial residual = 0.000229007, Final residual = 4.43365e-05, No Iterations 2
smoothSolver:  Solving for rho, Initial residual = 0, Final residual = 0, No Iterations 0
DICPCG:  Solving for T, Initial residual = 0.0101532, Final residual = 5.711e-07, No Iterations 10
ExecutionTime = 0.71 s  ClockTime = 1 s

Iteration = 0.00185

DICPCG:  Solving for phi, Initial residual = 0.00012115, Final residual = 2.37e-05, No Iterations 37
smoothSolver:  Solving for rho, Initial residual = 0, Final residual = 0, No Iterations 0
DICPCG:  Solving for T, Initial residual = 0.0093077, Final residual = 5.2271e-07, No Iterations 10
ExecutionTime = 0.73 s  ClockTime = 1 s

Iteration = 0.0019

DICPCG:  Solving for phi, Initial residual = 0.000202264, Final residual = 3.10182e-05, No Iterations 2
smoothSolver:  Solving for rho, Initial residual = 0, Final residual = 0, No Iterations 0
DICPCG:  Solving for T, Initial residual = 0.0085234, Final residual = 4.76404e-07, No Iterations 10
ExecutionTime = 0.75 s  ClockTime = 1 s

Iteration = 0.00195

DICPCG:  Solving for phi, Initial residual = 9.41966e-05, Final residual = 1.85769e-05, No Iterations 7
smoothSolver:  Solving for rho, Initial residual = 0, Final residual = 0, No Iterations 0
DICPCG:  Solving for T, Initial residual = 0.00779274, Final residual = 4.3393e-07, No Iterations 10
ExecutionTime = 0.77 s  ClockTime = 1 s

Iteration = 0.002

DICPCG:  Solving for phi, Initial residual = 8.6826e-05, Final residual = 1.55531e-05, No Iterations 2
smoothSolver:  Solving for rho, Initial residual = 0, Final residual = 0, No Iterations 0
DICPCG:  Solving for T, Initial residual = 0.00711992, Final residual = 3.94639e-07, No Iterations 10
ExecutionTime = 0.78 s  ClockTime = 1 s

Iteration = 0.00205

DICPCG:  Solving for phi, Initial residual = 4.57665e-05, Final residual = 9.05674e-06, No Iterations 56
smoothSolver:  Solving for rho, Initial residual = 0, Final residual = 0, No Iterations 0
DICPCG:  Solving for T, Initial residual = 0.00657576, Final residual = 9.61537e-07, No Iterations 9
ExecutionTime = 0.82 s  ClockTime = 1 s

Iteration = 0.0021

DICPCG:  Solving for phi, Initial residual = 0.000165766, Final residual = 2.53641e-05, No Iterations 2
smoothSolver:  Solving for rho, Initial residual = 0, Final residual = 0, No Iterations 0
DICPCG:  Solving for T, Initial residual = 0.00602608, Final residual = 8.73813e-07, No Iterations 9
ExecutionTime = 0.83 s  ClockTime = 1 s

Iteration = 0.00215

DICPCG:  Solving for phi, Initial residual = 7.03248e-05, Final residual = 1.32311e-05, No Iterations 5
smoothSolver:  Solving for rho, Initial residual = 0, Final residual = 0, No Iterations 0
DICPCG:  Solving for T, Initial residual = 0.00549612, Final residual = 7.92118e-07, No Iterations 9
ExecutionTime = 0.84 s  ClockTime = 1 s

Iteration = 0.0022

DICPCG:  Solving for phi, Initial residual = 5.10495e-05, Final residual = 8.89472e-06, No Iterations 2
smoothSolver:  Solving for rho, Initial residual = 0, Final residual = 0, No Iterations 0
DICPCG:  Solving for T, Initial residual = 0.00500849, Final residual = 7.1684e-07, No Iterations 9
ExecutionTime = 0.86 s  ClockTime = 1 s

Iteration = 0.00225

DICPCG:  Solving for phi, Initial residual = 2.72183e-05, Final residual = 5.36495e-06, No Iterations 36
smoothSolver:  Solving for rho, Initial residual = 0, Final residual = 0, No Iterations 0
DICPCG:  Solving for T, Initial residual = 0.0045605, Final residual = 6.49374e-07, No Iterations 9
ExecutionTime = 0.89 s  ClockTime = 1 s

Iteration = 0.0023

DICPCG:  Solving for phi, Initial residual = 5.36774e-05, Final residual = 1.05774e-05, No Iterations 1
smoothSolver:  Solving for rho, Initial residual = 0, Final residual = 0, No Iterations 0
DICPCG:  Solving for T, Initial residual = 0.0041526, Final residual = 5.86992e-07, No Iterations 9
ExecutionTime = 0.9 s  ClockTime = 1 s

Iteration = 0.00235

DICPCG:  Solving for phi, Initial residual = 2.28948e-05, Final residual = 4.34523e-06, No Iterations 4
smoothSolver:  Solving for rho, Initial residual = 0, Final residual = 0, No Iterations 0
DICPCG:  Solving for T, Initial residual = 0.00378004, Final residual = 5.30523e-07, No Iterations 9
ExecutionTime = 0.91 s  ClockTime = 1 s

Iteration = 0.0024

DICPCG:  Solving for phi, Initial residual = 1.8653e-05, Final residual = 3.68574e-06, No Iterations 7
smoothSolver:  Solving for rho, Initial residual = 0, Final residual = 0, No Iterations 0
DICPCG:  Solving for T, Initial residual = 0.00344003, Final residual = 4.79508e-07, No Iterations 9
ExecutionTime = 0.93 s  ClockTime = 1 s

Iteration = 0.00245

DICPCG:  Solving for phi, Initial residual = 1.591e-05, Final residual = 3.01886e-06, No Iterations 2
smoothSolver:  Solving for rho, Initial residual = 0, Final residual = 0, No Iterations 0
DICPCG:  Solving for T, Initial residual = 0.00313036, Final residual = 4.33262e-07, No Iterations 9
ExecutionTime = 0.94 s  ClockTime = 1 s

Iteration = 0.0025

DICPCG:  Solving for phi, Initial residual = 8.40898e-06, Final residual = 1.66957e-06, No Iterations 44
smoothSolver:  Solving for rho, Initial residual = 0, Final residual = 0, No Iterations 0
DICPCG:  Solving for T, Initial residual = 0.0028629, Final residual = 3.92766e-07, No Iterations 9
ExecutionTime = 0.97 s  ClockTime = 1 s

Iteration = 0.00255

DICPCG:  Solving for phi, Initial residual = 3.39244e-05, Final residual = 5.4615e-06, No Iterations 2
smoothSolver:  Solving for rho, Initial residual = 0, Final residual = 0, No Iterations 0
DICPCG:  Solving for T, Initial residual = 0.00260947, Final residual = 9.23457e-07, No Iterations 8
ExecutionTime = 0.98 s  ClockTime = 1 s

Iteration = 0.0026

DICPCG:  Solving for phi, Initial residual = 1.41403e-05, Final residual = 2.72571e-06, No Iterations 3
smoothSolver:  Solving for rho, Initial residual = 0, Final residual = 0, No Iterations 0
DICPCG:  Solving for T, Initial residual = 0.0023736, Final residual = 8.36085e-07, No Iterations 8
ExecutionTime = 1 s  ClockTime = 1 s

Iteration = 0.00265

DICPCG:  Solving for phi, Initial residual = 9.73427e-06, Final residual = 1.8862e-06, No Iterations 1
smoothSolver:  Solving for rho, Initial residual = 0, Final residual = 0, No Iterations 0
DICPCG:  Solving for T, Initial residual = 0.00215852, Final residual = 7.55116e-07, No Iterations 8
ExecutionTime = 1.01 s  ClockTime = 1 s

Iteration = 0.0027

DICPCG:  Solving for phi, Initial residual = 4.78579e-06, Final residual = 9.44671e-07, No Iterations 15
smoothSolver:  Solving for rho, Initial residual = 0, Final residual = 0, No Iterations 0
DICPCG:  Solving for T, Initial residual = 0.00196276, Final residual = 6.82716e-07, No Iterations 8
ExecutionTime = 1.03 s  ClockTime = 1 s

Iteration = 0.00275

DICPCG:  Solving for phi, Initial residual = 7.1054e-06, Final residual = 1.15388e-06, No Iterations 2
smoothSolver:  Solving for rho, Initial residual = 0, Final residual = 0, No Iterations 0
DICPCG:  Solving for T, Initial residual = 0.00178487, Final residual = 6.16932e-07, No Iterations 8
ExecutionTime = 1.04 s  ClockTime = 1 s

Iteration = 0.0028

DICPCG:  Solving for phi, Initial residual = 3.45124e-06, Final residual = 6.86084e-07, No Iterations 5
smoothSolver:  Solving for rho, Initial residual = 0, Final residual = 0, No Iterations 0
DICPCG:  Solving for T, Initial residual = 0.00162293, Final residual = 5.57515e-07, No Iterations 8
ExecutionTime = 1.06 s  ClockTime = 1 s

Iteration = 0.00285

DICPCG:  Solving for phi, Initial residual = 2.90895e-06, Final residual = 5.64145e-07, No Iterations 2
smoothSolver:  Solving for rho, Initial residual = 0, Final residual = 0, No Iterations 0
DICPCG:  Solving for T, Initial residual = 0.00147567, Final residual = 5.0377e-07, No Iterations 8
ExecutionTime = 1.07 s  ClockTime = 1 s

Iteration = 0.0029

DICPCG:  Solving for phi, Initial residual = 1.6999e-06, Final residual = 3.26288e-07, No Iterations 93
smoothSolver:  Solving for rho, Initial residual = 0, Final residual = 0, No Iterations 0
DICPCG:  Solving for T, Initial residual = 0.00134536, Final residual = 4.56211e-07, No Iterations 8
ExecutionTime = 1.12 s  ClockTime = 2 s

Iteration = 0.00295

DICPCG:  Solving for phi, Initial residual = 7.61087e-06, Final residual = 1.51952e-06, No Iterations 1
smoothSolver:  Solving for rho, Initial residual = 0, Final residual = 0, No Iterations 0
DICPCG:  Solving for T, Initial residual = 0.00122462, Final residual = 4.12692e-07, No Iterations 8
ExecutionTime = 1.13 s  ClockTime = 2 s

Iteration = 0.003

DICPCG:  Solving for phi, Initial residual = 3.10664e-06, Final residual = 6.03534e-07, No Iterations 4
smoothSolver:  Solving for rho, Initial residual = 0, Final residual = 0, No Iterations 0
DICPCG:  Solving for T, Initial residual = 0.00111362, Final residual = 3.73117e-07, No Iterations 8
ExecutionTime = 1.14 s  ClockTime = 2 s

Iteration = 0.00305

DICPCG:  Solving for phi, Initial residual = 2.4704e-06, Final residual = 4.83437e-07, No Iterations 2
smoothSolver:  Solving for rho, Initial residual = 0, Final residual = 0, No Iterations 0
DICPCG:  Solving for T, Initial residual = 0.00101255, Final residual = 9.09519e-07, No Iterations 7
ExecutionTime = 1.16 s  ClockTime = 2 s

Iteration = 0.0031

DICPCG:  Solving for phi, Initial residual = 1.29445e-06, Final residual = 2.50912e-07, No Iterations 11
smoothSolver:  Solving for rho, Initial residual = 0, Final residual = 0, No Iterations 0
DICPCG:  Solving for T, Initial residual = 0.00092058, Final residual = 8.14214e-07, No Iterations 7
ExecutionTime = 1.17 s  ClockTime = 2 s

Iteration = 0.00315

DICPCG:  Solving for phi, Initial residual = 1.54768e-06, Final residual = 2.62104e-07, No Iterations 2
smoothSolver:  Solving for rho, Initial residual = 0, Final residual = 0, No Iterations 0
DICPCG:  Solving for T, Initial residual = 0.000837063, Final residual = 7.4031e-07, No Iterations 7
ExecutionTime = 1.19 s  ClockTime = 2 s

Iteration = 0.0032

DICPCG:  Solving for phi, Initial residual = 7.8311e-07, Final residual = 1.53853e-07, No Iterations 25
smoothSolver:  Solving for rho, Initial residual = 0, Final residual = 0, No Iterations 0
DICPCG:  Solving for T, Initial residual = 0.000761128, Final residual = 6.68684e-07, No Iterations 7
ExecutionTime = 1.21 s  ClockTime = 2 s

Iteration = 0.00325

DICPCG:  Solving for phi, Initial residual = 1.27649e-06, Final residual = 2.13233e-07, No Iterations 2
smoothSolver:  Solving for rho, Initial residual = 0, Final residual = 0, No Iterations 0
DICPCG:  Solving for T, Initial residual = 0.000692156, Final residual = 6.06817e-07, No Iterations 7
ExecutionTime = 1.22 s  ClockTime = 2 s

Iteration = 0.0033

DICPCG:  Solving for phi, Initial residual = 6.00355e-07, Final residual = 1.15898e-07, No Iterations 8
smoothSolver:  Solving for rho, Initial residual = 0, Final residual = 0, No Iterations 0
DICPCG:  Solving for T, Initial residual = 0.00062946, Final residual = 5.49083e-07, No Iterations 7
ExecutionTime = 1.24 s  ClockTime = 2 s

Iteration = 0.00335

DICPCG:  Solving for phi, Initial residual = 5.86298e-07, Final residual = 1.04857e-07, No Iterations 2
smoothSolver:  Solving for rho, Initial residual = 0, Final residual = 0, No Iterations 0
DICPCG:  Solving for T, Initial residual = 0.000572474, Final residual = 4.97935e-07, No Iterations 7
ExecutionTime = 1.25 s  ClockTime = 2 s

Iteration = 0.0034

DICPCG:  Solving for phi, Initial residual = 3.076e-07, Final residual = 5.28339e-08, No Iterations 56
smoothSolver:  Solving for rho, Initial residual = 0, Final residual = 0, No Iterations 0
DICPCG:  Solving for T, Initial residual = 0.00052123, Final residual = 4.51247e-07, No Iterations 7
ExecutionTime = 1.29 s  ClockTime = 2 s

Iteration = 0.00345

DICPCG:  Solving for phi, Initial residual = 1.18414e-06, Final residual = 2.36753e-07, No Iterations 1
smoothSolver:  Solving for rho, Initial residual = 0, Final residual = 0, No Iterations 0
DICPCG:  Solving for T, Initial residual = 0.000474292, Final residual = 4.09277e-07, No Iterations 7
ExecutionTime = 1.3 s  ClockTime = 2 s

Iteration = 0.0035

DICPCG:  Solving for phi, Initial residual = 4.83247e-07, Final residual = 8.5553e-08, No Iterations 4
smoothSolver:  Solving for rho, Initial residual = 0, Final residual = 0, No Iterations 0
DICPCG:  Solving for T, Initial residual = 0.000431439, Final residual = 3.70828e-07, No Iterations 7
ExecutionTime = 1.31 s  ClockTime = 2 s

Iteration = 0.00355

DICPCG:  Solving for phi, Initial residual = 3.8061e-07, Final residual = 7.24211e-08, No Iterations 2
smoothSolver:  Solving for rho, Initial residual = 0, Final residual = 0, No Iterations 0
DICPCG:  Solving for T, Initial residual = 0.000392458, Final residual = 3.36226e-07, No Iterations 7
ExecutionTime = 1.33 s  ClockTime = 2 s

Iteration = 0.0036

DICPCG:  Solving for phi, Initial residual = 2.00363e-07, Final residual = 3.51768e-08, No Iterations 9
smoothSolver:  Solving for rho, Initial residual = 0, Final residual = 0, No Iterations 0
DICPCG:  Solving for T, Initial residual = 0.000357015, Final residual = 9.31064e-07, No Iterations 6
ExecutionTime = 1.34 s  ClockTime = 2 s

Iteration = 0.00365

DICPCG:  Solving for phi, Initial residual = 2.33838e-07, Final residual = 4.01809e-08, No Iterations 2
smoothSolver:  Solving for rho, Initial residual = 0, Final residual = 0, No Iterations 0
DICPCG:  Solving for T, Initial residual = 0.000324888, Final residual = 8.57854e-07, No Iterations 6
ExecutionTime = 1.35 s  ClockTime = 2 s

Iteration = 0.0037

DICPCG:  Solving for phi, Initial residual = 1.21089e-07, Final residual = 2.14001e-08, No Iterations 11
smoothSolver:  Solving for rho, Initial residual = 0, Final residual = 0, No Iterations 0
DICPCG:  Solving for T, Initial residual = 0.000295593, Final residual = 7.74786e-07, No Iterations 6
ExecutionTime = 1.37 s  ClockTime = 2 s

Iteration = 0.00375

DICPCG:  Solving for phi, Initial residual = 1.47137e-07, Final residual = 2.49667e-08, No Iterations 2
smoothSolver:  Solving for rho, Initial residual = 0, Final residual = 0, No Iterations 0
DICPCG:  Solving for T, Initial residual = 0.000268945, Final residual = 7.04863e-07, No Iterations 6
ExecutionTime = 1.38 s  ClockTime = 2 s

Iteration = 0.0038

DICPCG:  Solving for phi, Initial residual = 7.67222e-08, Final residual = 1.52885e-08, No Iterations 60
smoothSolver:  Solving for rho, Initial residual = 0, Final residual = 0, No Iterations 0
DICPCG:  Solving for T, Initial residual = 0.000244805, Final residual = 6.38249e-07, No Iterations 6
ExecutionTime = 1.42 s  ClockTime = 2 s

Iteration = 0.00385

DICPCG:  Solving for phi, Initial residual = 2.12739e-07, Final residual = 4.23076e-08, No Iterations 1
smoothSolver:  Solving for rho, Initial residual = 0, Final residual = 0, No Iterations 0
DICPCG:  Solving for T, Initial residual = 0.000222795, Final residual = 5.79559e-07, No Iterations 6
ExecutionTime = 1.43 s  ClockTime = 2 s

Iteration = 0.0039

DICPCG:  Solving for phi, Initial residual = 9.08682e-08, Final residual = 1.63879e-08, No Iterations 4
smoothSolver:  Solving for rho, Initial residual = 0, Final residual = 0, No Iterations 0
DICPCG:  Solving for T, Initial residual = 0.000202749, Final residual = 5.25209e-07, No Iterations 6
ExecutionTime = 1.44 s  ClockTime = 2 s

Iteration = 0.00395

DICPCG:  Solving for phi, Initial residual = 7.43776e-08, Final residual = 1.44105e-08, No Iterations 2
smoothSolver:  Solving for rho, Initial residual = 0, Final residual = 0, No Iterations 0
DICPCG:  Solving for T, Initial residual = 0.000184513, Final residual = 4.76578e-07, No Iterations 6
ExecutionTime = 1.46 s  ClockTime = 2 s

Iteration = 0.004

DICPCG:  Solving for phi, Initial residual = 4.02993e-08, Final residual = 9.22698e-09, No Iterations 8
smoothSolver:  Solving for rho, Initial residual = 0, Final residual = 0, No Iterations 0
DICPCG:  Solving for T, Initial residual = 0.000167925, Final residual = 4.32124e-07, No Iterations 6
ExecutionTime = 1.47 s  ClockTime = 2 s

Iteration = 0.00405

DICPCG:  Solving for phi, Initial residual = 5.00164e-08, Final residual = 9.72761e-09, No Iterations 2
smoothSolver:  Solving for rho, Initial residual = 0, Final residual = 0, No Iterations 0
DICPCG:  Solving for T, Initial residual = 0.00015284, Final residual = 9.99653e-07, No Iterations 5
ExecutionTime = 1.48 s  ClockTime = 2 s

Iteration = 0.0041

DICPCG:  Solving for phi, Initial residual = 2.62501e-08, Final residual = 7.36198e-09, No Iterations 1
smoothSolver:  Solving for rho, Initial residual = 0, Final residual = 0, No Iterations 0
DICPCG:  Solving for T, Initial residual = 0.000139144, Final residual = 8.92803e-07, No Iterations 5
ExecutionTime = 1.49 s  ClockTime = 2 s

Iteration = 0.00415

DICPCG:  Solving for phi, Initial residual = 1.6678e-08, Final residual = 7.00204e-09, No Iterations 1
smoothSolver:  Solving for rho, Initial residual = 0, Final residual = 0, No Iterations 0
DICPCG:  Solving for T, Initial residual = 0.000126658, Final residual = 8.12219e-07, No Iterations 5
ExecutionTime = 1.5 s  ClockTime = 2 s

Iteration = 0.0042

DICPCG:  Solving for phi, Initial residual = 1.21898e-08, Final residual = 6.70733e-09, No Iterations 1
smoothSolver:  Solving for rho, Initial residual = 0, Final residual = 0, No Iterations 0
DICPCG:  Solving for T, Initial residual = 0.000115294, Final residual = 7.35195e-07, No Iterations 5
ExecutionTime = 1.52 s  ClockTime = 2 s

Iteration = 0.00425

DICPCG:  Solving for phi, Initial residual = 1.0203e-08, Final residual = 6.46887e-09, No Iterations 1
smoothSolver:  Solving for rho, Initial residual = 0, Final residual = 0, No Iterations 0
DICPCG:  Solving for T, Initial residual = 0.000104955, Final residual = 6.67711e-07, No Iterations 5
ExecutionTime = 1.53 s  ClockTime = 2 s

Iteration = 0.0043

DICPCG:  Solving for phi, Initial residual = 8.84563e-09, Final residual = 8.84563e-09, No Iterations 0
smoothSolver:  Solving for rho, Initial residual = 0, Final residual = 0, No Iterations 0
DICPCG:  Solving for T, Initial residual = 9.55511e-05, Final residual = 6.05147e-07, No Iterations 5
ExecutionTime = 1.55 s  ClockTime = 2 s

Iteration = 0.00435

DICPCG:  Solving for phi, Initial residual = 8.84563e-09, Final residual = 8.84563e-09, No Iterations 0
smoothSolver:  Solving for rho, Initial residual = 0, Final residual = 0, No Iterations 0
DICPCG:  Solving for T, Initial residual = 8.69922e-05, Final residual = 5.49297e-07, No Iterations 5
ExecutionTime = 1.56 s  ClockTime = 2 s

Iteration = 0.0044

DICPCG:  Solving for phi, Initial residual = 8.84563e-09, Final residual = 8.84563e-09, No Iterations 0
smoothSolver:  Solving for rho, Initial residual = 0, Final residual = 0, No Iterations 0
DICPCG:  Solving for T, Initial residual = 7.92066e-05, Final residual = 4.98058e-07, No Iterations 5
ExecutionTime = 1.57 s  ClockTime = 2 s

Iteration = 0.00445

DICPCG:  Solving for phi, Initial residual = 8.84563e-09, Final residual = 8.84563e-09, No Iterations 0
smoothSolver:  Solving for rho, Initial residual = 0, Final residual = 0, No Iterations 0
DICPCG:  Solving for T, Initial residual = 7.21196e-05, Final residual = 4.51998e-07, No Iterations 5
ExecutionTime = 1.58 s  ClockTime = 2 s

Iteration = 0.0045

DICPCG:  Solving for phi, Initial residual = 8.84563e-09, Final residual = 8.84563e-09, No Iterations 0
smoothSolver:  Solving for rho, Initial residual = 0, Final residual = 0, No Iterations 0
DICPCG:  Solving for T, Initial residual = 6.56718e-05, Final residual = 4.0996e-07, No Iterations 5
ExecutionTime = 1.59 s  ClockTime = 2 s

Iteration = 0.00455

DICPCG:  Solving for phi, Initial residual = 8.84563e-09, Final residual = 8.84563e-09, No Iterations 0
smoothSolver:  Solving for rho, Initial residual = 0, Final residual = 0, No Iterations 0
DICPCG:  Solving for T, Initial residual = 5.98019e-05, Final residual = 9.25015e-07, No Iterations 4
ExecutionTime = 1.6 s  ClockTime = 2 s

Iteration = 0.0046

DICPCG:  Solving for phi, Initial residual = 8.84563e-09, Final residual = 8.84563e-09, No Iterations 0
smoothSolver:  Solving for rho, Initial residual = 0, Final residual = 0, No Iterations 0
DICPCG:  Solving for T, Initial residual = 5.43133e-05, Final residual = 8.52431e-07, No Iterations 4
ExecutionTime = 1.61 s  ClockTime = 2 s

Iteration = 0.00465

DICPCG:  Solving for phi, Initial residual = 8.84563e-09, Final residual = 8.84563e-09, No Iterations 0
smoothSolver:  Solving for rho, Initial residual = 0, Final residual = 0, No Iterations 0
DICPCG:  Solving for T, Initial residual = 4.94356e-05, Final residual = 7.73843e-07, No Iterations 4
ExecutionTime = 1.62 s  ClockTime = 2 s

Iteration = 0.0047

DICPCG:  Solving for phi, Initial residual = 8.84563e-09, Final residual = 8.84563e-09, No Iterations 0
smoothSolver:  Solving for rho, Initial residual = 0, Final residual = 0, No Iterations 0
DICPCG:  Solving for T, Initial residual = 4.50228e-05, Final residual = 7.03269e-07, No Iterations 4
ExecutionTime = 1.63 s  ClockTime = 2 s

Iteration = 0.00475

DICPCG:  Solving for phi, Initial residual = 8.84563e-09, Final residual = 8.84563e-09, No Iterations 0
smoothSolver:  Solving for rho, Initial residual = 0, Final residual = 0, No Iterations 0
DICPCG:  Solving for T, Initial residual = 4.1007e-05, Final residual = 6.38541e-07, No Iterations 4
ExecutionTime = 1.64 s  ClockTime = 2 s

Iteration = 0.0048

DICPCG:  Solving for phi, Initial residual = 8.84563e-09, Final residual = 8.84563e-09, No Iterations 0
smoothSolver:  Solving for rho, Initial residual = 0, Final residual = 0, No Iterations 0
DICPCG:  Solving for T, Initial residual = 3.73527e-05, Final residual = 5.79768e-07, No Iterations 4
ExecutionTime = 1.65 s  ClockTime = 2 s

Iteration = 0.00485

DICPCG:  Solving for phi, Initial residual = 8.84563e-09, Final residual = 8.84563e-09, No Iterations 0
smoothSolver:  Solving for rho, Initial residual = 0, Final residual = 0, No Iterations 0
DICPCG:  Solving for T, Initial residual = 3.40252e-05, Final residual = 5.26309e-07, No Iterations 4
ExecutionTime = 1.66 s  ClockTime = 2 s

Iteration = 0.0049

DICPCG:  Solving for phi, Initial residual = 8.84563e-09, Final residual = 8.84563e-09, No Iterations 0
smoothSolver:  Solving for rho, Initial residual = 0, Final residual = 0, No Iterations 0
DICPCG:  Solving for T, Initial residual = 3.09955e-05, Final residual = 4.77746e-07, No Iterations 4
ExecutionTime = 1.67 s  ClockTime = 2 s

Iteration = 0.00495

DICPCG:  Solving for phi, Initial residual = 8.84563e-09, Final residual = 8.84563e-09, No Iterations 0
smoothSolver:  Solving for rho, Initial residual = 0, Final residual = 0, No Iterations 0
DICPCG:  Solving for T, Initial residual = 2.82366e-05, Final residual = 4.33635e-07, No Iterations 4
ExecutionTime = 1.68 s  ClockTime = 2 s

Iteration = 0.005

DICPCG:  Solving for phi, Initial residual = 8.84563e-09, Final residual = 8.84563e-09, No Iterations 0
smoothSolver:  Solving for rho, Initial residual = 0, Final residual = 0, No Iterations 0
DICPCG:  Solving for T, Initial residual = 2.57241e-05, Final residual = 3.9358e-07, No Iterations 4
ExecutionTime = 1.69 s  ClockTime = 2 s

Iteration = 0.00505

DICPCG:  Solving for phi, Initial residual = 8.84563e-09, Final residual = 8.84563e-09, No Iterations 0
smoothSolver:  Solving for rho, Initial residual = 0, Final residual = 0, No Iterations 0
DICPCG:  Solving for T, Initial residual = 2.34361e-05, Final residual = 3.57219e-07, No Iterations 4
ExecutionTime = 1.7 s  ClockTime = 2 s

Iteration = 0.0051

DICPCG:  Solving for phi, Initial residual = 8.84563e-09, Final residual = 8.84563e-09, No Iterations 0
smoothSolver:  Solving for rho, Initial residual = 0, Final residual = 0, No Iterations 0
DICPCG:  Solving for T, Initial residual = 2.13523e-05, Final residual = 9.7385e-07, No Iterations 3
ExecutionTime = 1.71 s  ClockTime = 2 s

Iteration = 0.00515

DICPCG:  Solving for phi, Initial residual = 8.84563e-09, Final residual = 8.84563e-09, No Iterations 0
smoothSolver:  Solving for rho, Initial residual = 0, Final residual = 0, No Iterations 0
DICPCG:  Solving for T, Initial residual = 1.9568e-05, Final residual = 8.44713e-07, No Iterations 3
ExecutionTime = 1.72 s  ClockTime = 2 s

Iteration = 0.0052

DICPCG:  Solving for phi, Initial residual = 8.84563e-09, Final residual = 8.84563e-09, No Iterations 0
smoothSolver:  Solving for rho, Initial residual = 0, Final residual = 0, No Iterations 0
DICPCG:  Solving for T, Initial residual = 1.77864e-05, Final residual = 7.74987e-07, No Iterations 3
ExecutionTime = 1.73 s  ClockTime = 2 s

Iteration = 0.00525

DICPCG:  Solving for phi, Initial residual = 8.84563e-09, Final residual = 8.84563e-09, No Iterations 0
smoothSolver:  Solving for rho, Initial residual = 0, Final residual = 0, No Iterations 0
DICPCG:  Solving for T, Initial residual = 1.62281e-05, Final residual = 7.01859e-07, No Iterations 3
ExecutionTime = 1.74 s  ClockTime = 2 s

Iteration = 0.0053

DICPCG:  Solving for phi, Initial residual = 8.84563e-09, Final residual = 8.84563e-09, No Iterations 0
smoothSolver:  Solving for rho, Initial residual = 0, Final residual = 0, No Iterations 0
DICPCG:  Solving for T, Initial residual = 1.47805e-05, Final residual = 6.37982e-07, No Iterations 3
ExecutionTime = 1.75 s  ClockTime = 2 s

Iteration = 0.00535

DICPCG:  Solving for phi, Initial residual = 8.84563e-09, Final residual = 8.84563e-09, No Iterations 0
smoothSolver:  Solving for rho, Initial residual = 0, Final residual = 0, No Iterations 0
DICPCG:  Solving for T, Initial residual = 1.34988e-05, Final residual = 5.81447e-07, No Iterations 3
ExecutionTime = 1.76 s  ClockTime = 2 s

Iteration = 0.0054

DICPCG:  Solving for phi, Initial residual = 8.84563e-09, Final residual = 8.84563e-09, No Iterations 0
smoothSolver:  Solving for rho, Initial residual = 0, Final residual = 0, No Iterations 0
DICPCG:  Solving for T, Initial residual = 1.23e-05, Final residual = 5.28472e-07, No Iterations 3
ExecutionTime = 1.77 s  ClockTime = 2 s

Iteration = 0.00545

DICPCG:  Solving for phi, Initial residual = 8.84563e-09, Final residual = 8.84563e-09, No Iterations 0
smoothSolver:  Solving for rho, Initial residual = 0, Final residual = 0, No Iterations 0
DICPCG:  Solving for T, Initial residual = 1.12495e-05, Final residual = 4.8381e-07, No Iterations 3
ExecutionTime = 1.78 s  ClockTime = 2 s

Iteration = 0.0055

DICPCG:  Solving for phi, Initial residual = 8.84563e-09, Final residual = 8.84563e-09, No Iterations 0
smoothSolver:  Solving for rho, Initial residual = 0, Final residual = 0, No Iterations 0
DICPCG:  Solving for T, Initial residual = 1.02617e-05, Final residual = 4.53336e-07, No Iterations 3
ExecutionTime = 1.79 s  ClockTime = 2 s

Iteration = 0.00555

DICPCG:  Solving for phi, Initial residual = 8.84563e-09, Final residual = 8.84563e-09, No Iterations 0
smoothSolver:  Solving for rho, Initial residual = 0, Final residual = 0, No Iterations 0
DICPCG:  Solving for T, Initial residual = 9.38991e-06, Final residual = 9.35911e-07, No Iterations 2
ExecutionTime = 1.8 s  ClockTime = 2 s

Iteration = 0.0056

DICPCG:  Solving for phi, Initial residual = 8.84563e-09, Final residual = 8.84563e-09, No Iterations 0
smoothSolver:  Solving for rho, Initial residual = 0, Final residual = 0, No Iterations 0
DICPCG:  Solving for T, Initial residual = 8.5564e-06, Final residual = 8.59377e-07, No Iterations 2
ExecutionTime = 1.81 s  ClockTime = 2 s

Iteration = 0.00565

DICPCG:  Solving for phi, Initial residual = 8.84563e-09, Final residual = 8.84563e-09, No Iterations 0
smoothSolver:  Solving for rho, Initial residual = 0, Final residual = 0, No Iterations 0
DICPCG:  Solving for T, Initial residual = 7.79146e-06, Final residual = 7.88524e-07, No Iterations 2
ExecutionTime = 1.82 s  ClockTime = 2 s

Iteration = 0.0057

DICPCG:  Solving for phi, Initial residual = 8.84563e-09, Final residual = 8.84563e-09, No Iterations 0
smoothSolver:  Solving for rho, Initial residual = 0, Final residual = 0, No Iterations 0
DICPCG:  Solving for T, Initial residual = 7.11143e-06, Final residual = 7.20462e-07, No Iterations 2
ExecutionTime = 1.83 s  ClockTime = 2 s

Iteration = 0.00575

DICPCG:  Solving for phi, Initial residual = 8.84563e-09, Final residual = 8.84563e-09, No Iterations 0
smoothSolver:  Solving for rho, Initial residual = 0, Final residual = 0, No Iterations 0
DICPCG:  Solving for T, Initial residual = 6.49361e-06, Final residual = 6.57778e-07, No Iterations 2
ExecutionTime = 1.84 s  ClockTime = 2 s

Iteration = 0.0058

DICPCG:  Solving for phi, Initial residual = 8.84563e-09, Final residual = 8.84563e-09, No Iterations 0
smoothSolver:  Solving for rho, Initial residual = 0, Final residual = 0, No Iterations 0
DICPCG:  Solving for T, Initial residual = 5.92906e-06, Final residual = 6.00277e-07, No Iterations 2
ExecutionTime = 1.85 s  ClockTime = 2 s

Iteration = 0.00585

DICPCG:  Solving for phi, Initial residual = 8.84563e-09, Final residual = 8.84563e-09, No Iterations 0
smoothSolver:  Solving for rho, Initial residual = 0, Final residual = 0, No Iterations 0
DICPCG:  Solving for T, Initial residual = 5.41153e-06, Final residual = 5.4787e-07, No Iterations 2
ExecutionTime = 1.86 s  ClockTime = 2 s

Iteration = 0.0059

DICPCG:  Solving for phi, Initial residual = 8.84563e-09, Final residual = 8.84563e-09, No Iterations 0
smoothSolver:  Solving for rho, Initial residual = 0, Final residual = 0, No Iterations 0
DICPCG:  Solving for T, Initial residual = 4.93818e-06, Final residual = 5.00015e-07, No Iterations 2
ExecutionTime = 1.87 s  ClockTime = 2 s

Iteration = 0.00595

DICPCG:  Solving for phi, Initial residual = 8.84563e-09, Final residual = 8.84563e-09, No Iterations 0
smoothSolver:  Solving for rho, Initial residual = 0, Final residual = 0, No Iterations 0
DICPCG:  Solving for T, Initial residual = 4.50495e-06, Final residual = 4.56102e-07, No Iterations 2
ExecutionTime = 1.88 s  ClockTime = 2 s

Iteration = 0.006

DICPCG:  Solving for phi, Initial residual = 8.84563e-09, Final residual = 8.84563e-09, No Iterations 0
smoothSolver:  Solving for rho, Initial residual = 0, Final residual = 0, No Iterations 0
DICPCG:  Solving for T, Initial residual = 4.10919e-06, Final residual = 4.16112e-07, No Iterations 2
ExecutionTime = 1.89 s  ClockTime = 2 s

Iteration = 0.00605

DICPCG:  Solving for phi, Initial residual = 8.84563e-09, Final residual = 8.84563e-09, No Iterations 0
smoothSolver:  Solving for rho, Initial residual = 0, Final residual = 0, No Iterations 0
DICPCG:  Solving for T, Initial residual = 3.74755e-06, Final residual = 3.79508e-07, No Iterations 2
ExecutionTime = 1.9 s  ClockTime = 2 s

Iteration = 0.0061

DICPCG:  Solving for phi, Initial residual = 8.84563e-09, Final residual = 8.84563e-09, No Iterations 0
smoothSolver:  Solving for rho, Initial residual = 0, Final residual = 0, No Iterations 0
DICPCG:  Solving for T, Initial residual = 3.41735e-06, Final residual = 3.46091e-07, No Iterations 2
ExecutionTime = 1.91 s  ClockTime = 2 s

Iteration = 0.00615

DICPCG:  Solving for phi, Initial residual = 8.84563e-09, Final residual = 8.84563e-09, No Iterations 0
smoothSolver:  Solving for rho, Initial residual = 0, Final residual = 0, No Iterations 0
DICPCG:  Solving for T, Initial residual = 3.11588e-06, Final residual = 3.15551e-07, No Iterations 2
ExecutionTime = 1.92 s  ClockTime = 2 s

Iteration = 0.0062

DICPCG:  Solving for phi, Initial residual = 8.84563e-09, Final residual = 8.84563e-09, No Iterations 0
smoothSolver:  Solving for rho, Initial residual = 0, Final residual = 0, No Iterations 0
DICPCG:  Solving for T, Initial residual = 2.8408e-06, Final residual = 2.877e-07, No Iterations 2
ExecutionTime = 1.93 s  ClockTime = 2 s

Iteration = 0.00625

DICPCG:  Solving for phi, Initial residual = 8.84563e-09, Final residual = 8.84563e-09, No Iterations 0
smoothSolver:  Solving for rho, Initial residual = 0, Final residual = 0, No Iterations 0
DICPCG:  Solving for T, Initial residual = 2.5898e-06, Final residual = 2.6225e-07, No Iterations 2
ExecutionTime = 1.94 s  ClockTime = 2 s

Iteration = 0.0063

DICPCG:  Solving for phi, Initial residual = 8.84563e-09, Final residual = 8.84563e-09, No Iterations 0
smoothSolver:  Solving for rho, Initial residual = 0, Final residual = 0, No Iterations 0
DICPCG:  Solving for T, Initial residual = 2.36086e-06, Final residual = 2.39045e-07, No Iterations 2
ExecutionTime = 1.95 s  ClockTime = 2 s

Iteration = 0.00635

DICPCG:  Solving for phi, Initial residual = 8.84563e-09, Final residual = 8.84563e-09, No Iterations 0
smoothSolver:  Solving for rho, Initial residual = 0, Final residual = 0, No Iterations 0
DICPCG:  Solving for T, Initial residual = 2.15204e-06, Final residual = 2.17857e-07, No Iterations 2
ExecutionTime = 1.96 s  ClockTime = 2 s

Iteration = 0.0064

DICPCG:  Solving for phi, Initial residual = 8.84563e-09, Final residual = 8.84563e-09, No Iterations 0
smoothSolver:  Solving for rho, Initial residual = 0, Final residual = 0, No Iterations 0
DICPCG:  Solving for T, Initial residual = 1.96162e-06, Final residual = 1.98544e-07, No Iterations 2
ExecutionTime = 1.97 s  ClockTime = 2 s

Iteration = 0.00645

DICPCG:  Solving for phi, Initial residual = 8.84563e-09, Final residual = 8.84563e-09, No Iterations 0
smoothSolver:  Solving for rho, Initial residual = 0, Final residual = 0, No Iterations 0
DICPCG:  Solving for T, Initial residual = 1.78799e-06, Final residual = 1.80919e-07, No Iterations 2
ExecutionTime = 1.98 s  ClockTime = 2 s

Iteration = 0.0065

DICPCG:  Solving for phi, Initial residual = 8.84563e-09, Final residual = 8.84563e-09, No Iterations 0
smoothSolver:  Solving for rho, Initial residual = 0, Final residual = 0, No Iterations 0
DICPCG:  Solving for T, Initial residual = 1.62969e-06, Final residual = 9.88849e-07, No Iterations 1
ExecutionTime = 1.99 s  ClockTime = 2 s

Iteration = 0.00655

DICPCG:  Solving for phi, Initial residual = 8.84563e-09, Final residual = 8.84563e-09, No Iterations 0
smoothSolver:  Solving for rho, Initial residual = 0, Final residual = 0, No Iterations 0
DICPCG:  Solving for T, Initial residual = 1.39957e-06, Final residual = 4.85337e-07, No Iterations 1
ExecutionTime = 2 s  ClockTime = 2 s

Iteration = 0.0066

DICPCG:  Solving for phi, Initial residual = 8.84563e-09, Final residual = 8.84563e-09, No Iterations 0
smoothSolver:  Solving for rho, Initial residual = 0, Final residual = 0, No Iterations 0
DICPCG:  Solving for T, Initial residual = 1.44069e-06, Final residual = 8.23247e-07, No Iterations 1
ExecutionTime = 2.01 s  ClockTime = 2 s

Iteration = 0.00665

DICPCG:  Solving for phi, Initial residual = 8.84563e-09, Final residual = 8.84563e-09, No Iterations 0
smoothSolver:  Solving for rho, Initial residual = 0, Final residual = 0, No Iterations 0
DICPCG:  Solving for T, Initial residual = 1.4407e-06, Final residual = 6.53847e-07, No Iterations 1
ExecutionTime = 2.02 s  ClockTime = 2 s

Iteration = 0.0067

DICPCG:  Solving for phi, Initial residual = 8.84563e-09, Final residual = 8.84563e-09, No Iterations 0
smoothSolver:  Solving for rho, Initial residual = 0, Final residual = 0, No Iterations 0
DICPCG:  Solving for T, Initial residual = 1.5007e-06, Final residual = 6.37922e-07, No Iterations 1
ExecutionTime = 2.03 s  ClockTime = 2 s

Iteration = 0.00675

DICPCG:  Solving for phi, Initial residual = 8.84563e-09, Final residual = 8.84563e-09, No Iterations 0
smoothSolver:  Solving for rho, Initial residual = 0, Final residual = 0, No Iterations 0
DICPCG:  Solving for T, Initial residual = 1.38801e-06, Final residual = 5.93594e-07, No Iterations 1
ExecutionTime = 2.04 s  ClockTime = 2 s

Iteration = 0.0068

DICPCG:  Solving for phi, Initial residual = 8.84563e-09, Final residual = 8.84563e-09, No Iterations 0
smoothSolver:  Solving for rho, Initial residual = 0, Final residual = 0, No Iterations 0
DICPCG:  Solving for T, Initial residual = 1.29578e-06, Final residual = 5.71327e-07, No Iterations 1
ExecutionTime = 2.05 s  ClockTime = 2 s

Iteration = 0.00685

DICPCG:  Solving for phi, Initial residual = 8.84563e-09, Final residual = 8.84563e-09, No Iterations 0
smoothSolver:  Solving for rho, Initial residual = 0, Final residual = 0, No Iterations 0
DICPCG:  Solving for T, Initial residual = 1.218e-06, Final residual = 5.45574e-07, No Iterations 1
ExecutionTime = 2.06 s  ClockTime = 2 s

Iteration = 0.0069

DICPCG:  Solving for phi, Initial residual = 8.84563e-09, Final residual = 8.84563e-09, No Iterations 0
smoothSolver:  Solving for rho, Initial residual = 0, Final residual = 0, No Iterations 0
DICPCG:  Solving for T, Initial residual = 1.14305e-06, Final residual = 5.22983e-07, No Iterations 1
ExecutionTime = 2.07 s  ClockTime = 2 s

Iteration = 0.00695

DICPCG:  Solving for phi, Initial residual = 8.84563e-09, Final residual = 8.84563e-09, No Iterations 0
smoothSolver:  Solving for rho, Initial residual = 0, Final residual = 0, No Iterations 0
DICPCG:  Solving for T, Initial residual = 1.08794e-06, Final residual = 5.01255e-07, No Iterations 1
ExecutionTime = 2.07 s  ClockTime = 2 s

Iteration = 0.007

DICPCG:  Solving for phi, Initial residual = 8.84563e-09, Final residual = 8.84563e-09, No Iterations 0
smoothSolver:  Solving for rho, Initial residual = 0, Final residual = 0, No Iterations 0
DICPCG:  Solving for T, Initial residual = 1.02741e-06, Final residual = 4.79716e-07, No Iterations 1
ExecutionTime = 2.08 s  ClockTime = 3 s

Iteration = 0.00705

DICPCG:  Solving for phi, Initial residual = 8.84563e-09, Final residual = 8.84563e-09, No Iterations 0
smoothSolver:  Solving for rho, Initial residual = 0, Final residual = 0, No Iterations 0
DICPCG:  Solving for T, Initial residual = 9.82763e-07, Final residual = 9.82763e-07, No Iterations 0
ExecutionTime = 2.09 s  ClockTime = 3 s

Iteration = 0.0071

DICPCG:  Solving for phi, Initial residual = 8.84563e-09, Final residual = 8.84563e-09, No Iterations 0
smoothSolver:  Solving for rho, Initial residual = 0, Final residual = 0, No Iterations 0
DICPCG:  Solving for T, Initial residual = 9.82763e-07, Final residual = 9.82763e-07, No Iterations 0
ExecutionTime = 2.1 s  ClockTime = 3 s

Iteration = 0.00715

DICPCG:  Solving for phi, Initial residual = 8.84563e-09, Final residual = 8.84563e-09, No Iterations 0
smoothSolver:  Solving for rho, Initial residual = 0, Final residual = 0, No Iterations 0
DICPCG:  Solving for T, Initial residual = 9.82763e-07, Final residual = 9.82763e-07, No Iterations 0
ExecutionTime = 2.11 s  ClockTime = 3 s

Iteration = 0.0072

DICPCG:  Solving for phi, Initial residual = 8.84563e-09, Final residual = 8.84563e-09, No Iterations 0
smoothSolver:  Solving for rho, Initial residual = 0, Final residual = 0, No Iterations 0
DICPCG:  Solving for T, Initial residual = 9.82763e-07, Final residual = 9.82763e-07, No Iterations 0
ExecutionTime = 2.12 s  ClockTime = 3 s

Iteration = 0.00725

DICPCG:  Solving for phi, Initial residual = 8.84563e-09, Final residual = 8.84563e-09, No Iterations 0
smoothSolver:  Solving for rho, Initial residual = 0, Final residual = 0, No Iterations 0
DICPCG:  Solving for T, Initial residual = 9.82763e-07, Final residual = 9.82763e-07, No Iterations 0
ExecutionTime = 2.13 s  ClockTime = 3 s

Iteration = 0.0073

DICPCG:  Solving for phi, Initial residual = 8.84563e-09, Final residual = 8.84563e-09, No Iterations 0
smoothSolver:  Solving for rho, Initial residual = 0, Final residual = 0, No Iterations 0
DICPCG:  Solving for T, Initial residual = 9.82763e-07, Final residual = 9.82763e-07, No Iterations 0
ExecutionTime = 2.14 s  ClockTime = 3 s

Iteration = 0.00735

DICPCG:  Solving for phi, Initial residual = 8.84563e-09, Final residual = 8.84563e-09, No Iterations 0
smoothSolver:  Solving for rho, Initial residual = 0, Final residual = 0, No Iterations 0
DICPCG:  Solving for T, Initial residual = 9.82763e-07, Final residual = 9.82763e-07, No Iterations 0
ExecutionTime = 2.14 s  ClockTime = 3 s

Iteration = 0.0074

DICPCG:  Solving for phi, Initial residual = 8.84563e-09, Final residual = 8.84563e-09, No Iterations 0
smoothSolver:  Solving for rho, Initial residual = 0, Final residual = 0, No Iterations 0
DICPCG:  Solving for T, Initial residual = 9.82763e-07, Final residual = 9.82763e-07, No Iterations 0
ExecutionTime = 2.15 s  ClockTime = 3 s

Iteration = 0.00745

DICPCG:  Solving for phi, Initial residual = 8.84563e-09, Final residual = 8.84563e-09, No Iterations 0
smoothSolver:  Solving for rho, Initial residual = 0, Final residual = 0, No Iterations 0
DICPCG:  Solving for T, Initial residual = 9.82763e-07, Final residual = 9.82763e-07, No Iterations 0
ExecutionTime = 2.16 s  ClockTime = 3 s

Iteration = 0.0075

DICPCG:  Solving for phi, Initial residual = 8.84563e-09, Final residual = 8.84563e-09, No Iterations 0
smoothSolver:  Solving for rho, Initial residual = 0, Final residual = 0, No Iterations 0
DICPCG:  Solving for T, Initial residual = 9.82763e-07, Final residual = 9.82763e-07, No Iterations 0
ExecutionTime = 2.17 s  ClockTime = 3 s

Iteration = 0.00755

DICPCG:  Solving for phi, Initial residual = 8.84563e-09, Final residual = 8.84563e-09, No Iterations 0
smoothSolver:  Solving for rho, Initial residual = 0, Final residual = 0, No Iterations 0
DICPCG:  Solving for T, Initial residual = 9.82763e-07, Final residual = 9.82763e-07, No Iterations 0
ExecutionTime = 2.18 s  ClockTime = 3 s

Iteration = 0.0076

DICPCG:  Solving for phi, Initial residual = 8.84563e-09, Final residual = 8.84563e-09, No Iterations 0
smoothSolver:  Solving for rho, Initial residual = 0, Final residual = 0, No Iterations 0
DICPCG:  Solving for T, Initial residual = 9.82763e-07, Final residual = 9.82763e-07, No Iterations 0
ExecutionTime = 2.19 s  ClockTime = 3 s

Iteration = 0.00765

DICPCG:  Solving for phi, Initial residual = 8.84563e-09, Final residual = 8.84563e-09, No Iterations 0
smoothSolver:  Solving for rho, Initial residual = 0, Final residual = 0, No Iterations 0
DICPCG:  Solving for T, Initial residual = 9.82763e-07, Final residual = 9.82763e-07, No Iterations 0
ExecutionTime = 2.2 s  ClockTime = 3 s

Iteration = 0.0077

DICPCG:  Solving for phi, Initial residual = 8.84563e-09, Final residual = 8.84563e-09, No Iterations 0
smoothSolver:  Solving for rho, Initial residual = 0, Final residual = 0, No Iterations 0
DICPCG:  Solving for T, Initial residual = 9.82763e-07, Final residual = 9.82763e-07, No Iterations 0
ExecutionTime = 2.21 s  ClockTime = 3 s

Iteration = 0.00775

DICPCG:  Solving for phi, Initial residual = 8.84563e-09, Final residual = 8.84563e-09, No Iterations 0
smoothSolver:  Solving for rho, Initial residual = 0, Final residual = 0, No Iterations 0
DICPCG:  Solving for T, Initial residual = 9.82763e-07, Final residual = 9.82763e-07, No Iterations 0
ExecutionTime = 2.21 s  ClockTime = 3 s

Iteration = 0.0078

DICPCG:  Solving for phi, Initial residual = 8.84563e-09, Final residual = 8.84563e-09, No Iterations 0
smoothSolver:  Solving for rho, Initial residual = 0, Final residual = 0, No Iterations 0
DICPCG:  Solving for T, Initial residual = 9.82763e-07, Final residual = 9.82763e-07, No Iterations 0
ExecutionTime = 2.22 s  ClockTime = 3 s

Iteration = 0.00785

DICPCG:  Solving for phi, Initial residual = 8.84563e-09, Final residual = 8.84563e-09, No Iterations 0
smoothSolver:  Solving for rho, Initial residual = 0, Final residual = 0, No Iterations 0
DICPCG:  Solving for T, Initial residual = 9.82763e-07, Final residual = 9.82763e-07, No Iterations 0
ExecutionTime = 2.23 s  ClockTime = 3 s

Iteration = 0.0079

DICPCG:  Solving for phi, Initial residual = 8.84563e-09, Final residual = 8.84563e-09, No Iterations 0
smoothSolver:  Solving for rho, Initial residual = 0, Final residual = 0, No Iterations 0
DICPCG:  Solving for T, Initial residual = 9.82763e-07, Final residual = 9.82763e-07, No Iterations 0
ExecutionTime = 2.24 s  ClockTime = 3 s

Iteration = 0.00795

DICPCG:  Solving for phi, Initial residual = 8.84563e-09, Final residual = 8.84563e-09, No Iterations 0
smoothSolver:  Solving for rho, Initial residual = 0, Final residual = 0, No Iterations 0
DICPCG:  Solving for T, Initial residual = 9.82763e-07, Final residual = 9.82763e-07, No Iterations 0
ExecutionTime = 2.25 s  ClockTime = 3 s

Iteration = 0.008

DICPCG:  Solving for phi, Initial residual = 8.84563e-09, Final residual = 8.84563e-09, No Iterations 0
smoothSolver:  Solving for rho, Initial residual = 0, Final residual = 0, No Iterations 0
DICPCG:  Solving for T, Initial residual = 9.82763e-07, Final residual = 9.82763e-07, No Iterations 0
ExecutionTime = 2.26 s  ClockTime = 3 s

Iteration = 0.00805

DICPCG:  Solving for phi, Initial residual = 8.84563e-09, Final residual = 8.84563e-09, No Iterations 0
smoothSolver:  Solving for rho, Initial residual = 0, Final residual = 0, No Iterations 0
DICPCG:  Solving for T, Initial residual = 9.82763e-07, Final residual = 9.82763e-07, No Iterations 0
ExecutionTime = 2.27 s  ClockTime = 3 s

Iteration = 0.0081

DICPCG:  Solving for phi, Initial residual = 8.84563e-09, Final residual = 8.84563e-09, No Iterations 0
smoothSolver:  Solving for rho, Initial residual = 0, Final residual = 0, No Iterations 0
DICPCG:  Solving for T, Initial residual = 9.82763e-07, Final residual = 9.82763e-07, No Iterations 0
ExecutionTime = 2.28 s  ClockTime = 3 s

Iteration = 0.00815

DICPCG:  Solving for phi, Initial residual = 8.84563e-09, Final residual = 8.84563e-09, No Iterations 0
smoothSolver:  Solving for rho, Initial residual = 0, Final residual = 0, No Iterations 0
DICPCG:  Solving for T, Initial residual = 9.82763e-07, Final residual = 9.82763e-07, No Iterations 0
ExecutionTime = 2.28 s  ClockTime = 3 s

Iteration = 0.0082

DICPCG:  Solving for phi, Initial residual = 8.84563e-09, Final residual = 8.84563e-09, No Iterations 0
smoothSolver:  Solving for rho, Initial residual = 0, Final residual = 0, No Iterations 0
DICPCG:  Solving for T, Initial residual = 9.82763e-07, Final residual = 9.82763e-07, No Iterations 0
ExecutionTime = 2.29 s  ClockTime = 3 s

Iteration = 0.00825

DICPCG:  Solving for phi, Initial residual = 8.84563e-09, Final residual = 8.84563e-09, No Iterations 0
smoothSolver:  Solving for rho, Initial residual = 0, Final residual = 0, No Iterations 0
DICPCG:  Solving for T, Initial residual = 9.82763e-07, Final residual = 9.82763e-07, No Iterations 0
ExecutionTime = 2.3 s  ClockTime = 3 s

Iteration = 0.0083

DICPCG:  Solving for phi, Initial residual = 8.84563e-09, Final residual = 8.84563e-09, No Iterations 0
smoothSolver:  Solving for rho, Initial residual = 0, Final residual = 0, No Iterations 0
DICPCG:  Solving for T, Initial residual = 9.82763e-07, Final residual = 9.82763e-07, No Iterations 0
ExecutionTime = 2.31 s  ClockTime = 3 s

Iteration = 0.00835

DICPCG:  Solving for phi, Initial residual = 8.84563e-09, Final residual = 8.84563e-09, No Iterations 0
smoothSolver:  Solving for rho, Initial residual = 0, Final residual = 0, No Iterations 0
DICPCG:  Solving for T, Initial residual = 9.82763e-07, Final residual = 9.82763e-07, No Iterations 0
ExecutionTime = 2.32 s  ClockTime = 3 s

Iteration = 0.0084

DICPCG:  Solving for phi, Initial residual = 8.84563e-09, Final residual = 8.84563e-09, No Iterations 0
smoothSolver:  Solving for rho, Initial residual = 0, Final residual = 0, No Iterations 0
DICPCG:  Solving for T, Initial residual = 9.82763e-07, Final residual = 9.82763e-07, No Iterations 0
ExecutionTime = 2.33 s  ClockTime = 3 s

Iteration = 0.00845

DICPCG:  Solving for phi, Initial residual = 8.84563e-09, Final residual = 8.84563e-09, No Iterations 0
smoothSolver:  Solving for rho, Initial residual = 0, Final residual = 0, No Iterations 0
DICPCG:  Solving for T, Initial residual = 9.82763e-07, Final residual = 9.82763e-07, No Iterations 0
ExecutionTime = 2.34 s  ClockTime = 3 s

Iteration = 0.0085

DICPCG:  Solving for phi, Initial residual = 8.84563e-09, Final residual = 8.84563e-09, No Iterations 0
smoothSolver:  Solving for rho, Initial residual = 0, Final residual = 0, No Iterations 0
DICPCG:  Solving for T, Initial residual = 9.82763e-07, Final residual = 9.82763e-07, No Iterations 0
ExecutionTime = 2.35 s  ClockTime = 3 s

Iteration = 0.00855

DICPCG:  Solving for phi, Initial residual = 8.84563e-09, Final residual = 8.84563e-09, No Iterations 0
smoothSolver:  Solving for rho, Initial residual = 0, Final residual = 0, No Iterations 0
DICPCG:  Solving for T, Initial residual = 9.82763e-07, Final residual = 9.82763e-07, No Iterations 0
ExecutionTime = 2.35 s  ClockTime = 3 s

Iteration = 0.0086

DICPCG:  Solving for phi, Initial residual = 8.84563e-09, Final residual = 8.84563e-09, No Iterations 0
smoothSolver:  Solving for rho, Initial residual = 0, Final residual = 0, No Iterations 0
DICPCG:  Solving for T, Initial residual = 9.82763e-07, Final residual = 9.82763e-07, No Iterations 0
ExecutionTime = 2.36 s  ClockTime = 3 s

Iteration = 0.00865

DICPCG:  Solving for phi, Initial residual = 8.84563e-09, Final residual = 8.84563e-09, No Iterations 0
smoothSolver:  Solving for rho, Initial residual = 0, Final residual = 0, No Iterations 0
DICPCG:  Solving for T, Initial residual = 9.82763e-07, Final residual = 9.82763e-07, No Iterations 0
ExecutionTime = 2.37 s  ClockTime = 3 s

Iteration = 0.0087

DICPCG:  Solving for phi, Initial residual = 8.84563e-09, Final residual = 8.84563e-09, No Iterations 0
smoothSolver:  Solving for rho, Initial residual = 0, Final residual = 0, No Iterations 0
DICPCG:  Solving for T, Initial residual = 9.82763e-07, Final residual = 9.82763e-07, No Iterations 0
ExecutionTime = 2.38 s  ClockTime = 3 s

Iteration = 0.00875

DICPCG:  Solving for phi, Initial residual = 8.84563e-09, Final residual = 8.84563e-09, No Iterations 0
smoothSolver:  Solving for rho, Initial residual = 0, Final residual = 0, No Iterations 0
DICPCG:  Solving for T, Initial residual = 9.82763e-07, Final residual = 9.82763e-07, No Iterations 0
ExecutionTime = 2.38 s  ClockTime = 3 s

Iteration = 0.0088

DICPCG:  Solving for phi, Initial residual = 8.84563e-09, Final residual = 8.84563e-09, No Iterations 0
smoothSolver:  Solving for rho, Initial residual = 0, Final residual = 0, No Iterations 0
DICPCG:  Solving for T, Initial residual = 9.82763e-07, Final residual = 9.82763e-07, No Iterations 0
ExecutionTime = 2.39 s  ClockTime = 3 s

Iteration = 0.00885

DICPCG:  Solving for phi, Initial residual = 8.84563e-09, Final residual = 8.84563e-09, No Iterations 0
smoothSolver:  Solving for rho, Initial residual = 0, Final residual = 0, No Iterations 0
DICPCG:  Solving for T, Initial residual = 9.82763e-07, Final residual = 9.82763e-07, No Iterations 0
ExecutionTime = 2.4 s  ClockTime = 3 s

Iteration = 0.0089

DICPCG:  Solving for phi, Initial residual = 8.84563e-09, Final residual = 8.84563e-09, No Iterations 0
smoothSolver:  Solving for rho, Initial residual = 0, Final residual = 0, No Iterations 0
DICPCG:  Solving for T, Initial residual = 9.82763e-07, Final residual = 9.82763e-07, No Iterations 0
ExecutionTime = 2.41 s  ClockTime = 3 s

Iteration = 0.00895

DICPCG:  Solving for phi, Initial residual = 8.84563e-09, Final residual = 8.84563e-09, No Iterations 0
smoothSolver:  Solving for rho, Initial residual = 0, Final residual = 0, No Iterations 0
DICPCG:  Solving for T, Initial residual = 9.82763e-07, Final residual = 9.82763e-07, No Iterations 0
ExecutionTime = 2.42 s  ClockTime = 3 s

Iteration = 0.009

DICPCG:  Solving for phi, Initial residual = 8.84563e-09, Final residual = 8.84563e-09, No Iterations 0
smoothSolver:  Solving for rho, Initial residual = 0, Final residual = 0, No Iterations 0
DICPCG:  Solving for T, Initial residual = 9.82763e-07, Final residual = 9.82763e-07, No Iterations 0
ExecutionTime = 2.43 s  ClockTime = 3 s

Iteration = 0.00905

DICPCG:  Solving for phi, Initial residual = 8.84563e-09, Final residual = 8.84563e-09, No Iterations 0
smoothSolver:  Solving for rho, Initial residual = 0, Final residual = 0, No Iterations 0
DICPCG:  Solving for T, Initial residual = 9.82763e-07, Final residual = 9.82763e-07, No Iterations 0
ExecutionTime = 2.44 s  ClockTime = 3 s

Iteration = 0.0091

DICPCG:  Solving for phi, Initial residual = 8.84563e-09, Final residual = 8.84563e-09, No Iterations 0
smoothSolver:  Solving for rho, Initial residual = 0, Final residual = 0, No Iterations 0
DICPCG:  Solving for T, Initial residual = 9.82763e-07, Final residual = 9.82763e-07, No Iterations 0
ExecutionTime = 2.45 s  ClockTime = 3 s

Iteration = 0.00915

DICPCG:  Solving for phi, Initial residual = 8.84563e-09, Final residual = 8.84563e-09, No Iterations 0
smoothSolver:  Solving for rho, Initial residual = 0, Final residual = 0, No Iterations 0
DICPCG:  Solving for T, Initial residual = 9.82763e-07, Final residual = 9.82763e-07, No Iterations 0
ExecutionTime = 2.45 s  ClockTime = 3 s

Iteration = 0.0092

DICPCG:  Solving for phi, Initial residual = 8.84563e-09, Final residual = 8.84563e-09, No Iterations 0
smoothSolver:  Solving for rho, Initial residual = 0, Final residual = 0, No Iterations 0
DICPCG:  Solving for T, Initial residual = 9.82763e-07, Final residual = 9.82763e-07, No Iterations 0
ExecutionTime = 2.46 s  ClockTime = 3 s

Iteration = 0.00925

DICPCG:  Solving for phi, Initial residual = 8.84563e-09, Final residual = 8.84563e-09, No Iterations 0
smoothSolver:  Solving for rho, Initial residual = 0, Final residual = 0, No Iterations 0
DICPCG:  Solving for T, Initial residual = 9.82763e-07, Final residual = 9.82763e-07, No Iterations 0
ExecutionTime = 2.47 s  ClockTime = 3 s

Iteration = 0.0093

DICPCG:  Solving for phi, Initial residual = 8.84563e-09, Final residual = 8.84563e-09, No Iterations 0
smoothSolver:  Solving for rho, Initial residual = 0, Final residual = 0, No Iterations 0
DICPCG:  Solving for T, Initial residual = 9.82763e-07, Final residual = 9.82763e-07, No Iterations 0
ExecutionTime = 2.48 s  ClockTime = 3 s

Iteration = 0.00935

DICPCG:  Solving for phi, Initial residual = 8.84563e-09, Final residual = 8.84563e-09, No Iterations 0
smoothSolver:  Solving for rho, Initial residual = 0, Final residual = 0, No Iterations 0
DICPCG:  Solving for T, Initial residual = 9.82763e-07, Final residual = 9.82763e-07, No Iterations 0
ExecutionTime = 2.49 s  ClockTime = 3 s

Iteration = 0.0094

DICPCG:  Solving for phi, Initial residual = 8.84563e-09, Final residual = 8.84563e-09, No Iterations 0
smoothSolver:  Solving for rho, Initial residual = 0, Final residual = 0, No Iterations 0
DICPCG:  Solving for T, Initial residual = 9.82763e-07, Final residual = 9.82763e-07, No Iterations 0
ExecutionTime = 2.5 s  ClockTime = 3 s

Iteration = 0.00945

DICPCG:  Solving for phi, Initial residual = 8.84563e-09, Final residual = 8.84563e-09, No Iterations 0
smoothSolver:  Solving for rho, Initial residual = 0, Final residual = 0, No Iterations 0
DICPCG:  Solving for T, Initial residual = 9.82763e-07, Final residual = 9.82763e-07, No Iterations 0
ExecutionTime = 2.51 s  ClockTime = 3 s

Iteration = 0.0095

DICPCG:  Solving for phi, Initial residual = 8.84563e-09, Final residual = 8.84563e-09, No Iterations 0
smoothSolver:  Solving for rho, Initial residual = 0, Final residual = 0, No Iterations 0
DICPCG:  Solving for T, Initial residual = 9.82763e-07, Final residual = 9.82763e-07, No Iterations 0
ExecutionTime = 2.52 s  ClockTime = 3 s

Iteration = 0.00955

DICPCG:  Solving for phi, Initial residual = 8.84563e-09, Final residual = 8.84563e-09, No Iterations 0
smoothSolver:  Solving for rho, Initial residual = 0, Final residual = 0, No Iterations 0
DICPCG:  Solving for T, Initial residual = 9.82763e-07, Final residual = 9.82763e-07, No Iterations 0
ExecutionTime = 2.52 s  ClockTime = 3 s

Iteration = 0.0096

DICPCG:  Solving for phi, Initial residual = 8.84563e-09, Final residual = 8.84563e-09, No Iterations 0
smoothSolver:  Solving for rho, Initial residual = 0, Final residual = 0, No Iterations 0
DICPCG:  Solving for T, Initial residual = 9.82763e-07, Final residual = 9.82763e-07, No Iterations 0
ExecutionTime = 2.53 s  ClockTime = 3 s

Iteration = 0.00965

DICPCG:  Solving for phi, Initial residual = 8.84563e-09, Final residual = 8.84563e-09, No Iterations 0
smoothSolver:  Solving for rho, Initial residual = 0, Final residual = 0, No Iterations 0
DICPCG:  Solving for T, Initial residual = 9.82763e-07, Final residual = 9.82763e-07, No Iterations 0
ExecutionTime = 2.54 s  ClockTime = 3 s

Iteration = 0.0097

DICPCG:  Solving for phi, Initial residual = 8.84563e-09, Final residual = 8.84563e-09, No Iterations 0
smoothSolver:  Solving for rho, Initial residual = 0, Final residual = 0, No Iterations 0
DICPCG:  Solving for T, Initial residual = 9.82763e-07, Final residual = 9.82763e-07, No Iterations 0
ExecutionTime = 2.55 s  ClockTime = 3 s

Iteration = 0.00975

DICPCG:  Solving for phi, Initial residual = 8.84563e-09, Final residual = 8.84563e-09, No Iterations 0
smoothSolver:  Solving for rho, Initial residual = 0, Final residual = 0, No Iterations 0
DICPCG:  Solving for T, Initial residual = 9.82763e-07, Final residual = 9.82763e-07, No Iterations 0
ExecutionTime = 2.56 s  ClockTime = 3 s

Iteration = 0.0098

DICPCG:  Solving for phi, Initial residual = 8.84563e-09, Final residual = 8.84563e-09, No Iterations 0
smoothSolver:  Solving for rho, Initial residual = 0, Final residual = 0, No Iterations 0
DICPCG:  Solving for T, Initial residual = 9.82763e-07, Final residual = 9.82763e-07, No Iterations 0
ExecutionTime = 2.57 s  ClockTime = 3 s

Iteration = 0.00985

DICPCG:  Solving for phi, Initial residual = 8.84563e-09, Final residual = 8.84563e-09, No Iterations 0
smoothSolver:  Solving for rho, Initial residual = 0, Final residual = 0, No Iterations 0
DICPCG:  Solving for T, Initial residual = 9.82763e-07, Final residual = 9.82763e-07, No Iterations 0
ExecutionTime = 2.58 s  ClockTime = 3 s

Iteration = 0.0099

DICPCG:  Solving for phi, Initial residual = 8.84563e-09, Final residual = 8.84563e-09, No Iterations 0
smoothSolver:  Solving for rho, Initial residual = 0, Final residual = 0, No Iterations 0
DICPCG:  Solving for T, Initial residual = 9.82763e-07, Final residual = 9.82763e-07, No Iterations 0
ExecutionTime = 2.59 s  ClockTime = 3 s

Iteration = 0.00995

DICPCG:  Solving for phi, Initial residual = 8.84563e-09, Final residual = 8.84563e-09, No Iterations 0
smoothSolver:  Solving for rho, Initial residual = 0, Final residual = 0, No Iterations 0
DICPCG:  Solving for T, Initial residual = 9.82763e-07, Final residual = 9.82763e-07, No Iterations 0
ExecutionTime = 2.6 s  ClockTime = 3 s

Iteration = 0.01

DICPCG:  Solving for phi, Initial residual = 8.84563e-09, Final residual = 8.84563e-09, No Iterations 0
smoothSolver:  Solving for rho, Initial residual = 0, Final residual = 0, No Iterations 0
DICPCG:  Solving for T, Initial residual = 9.82763e-07, Final residual = 9.82763e-07, No Iterations 0
ExecutionTime = 2.61 s  ClockTime = 3 s

Iteration = 0.01005

DICPCG:  Solving for phi, Initial residual = 8.84563e-09, Final residual = 8.84563e-09, No Iterations 0
smoothSolver:  Solving for rho, Initial residual = 0, Final residual = 0, No Iterations 0
DICPCG:  Solving for T, Initial residual = 9.82763e-07, Final residual = 9.82763e-07, No Iterations 0
ExecutionTime = 2.62 s  ClockTime = 3 s

Iteration = 0.0101

DICPCG:  Solving for phi, Initial residual = 8.84563e-09, Final residual = 8.84563e-09, No Iterations 0
smoothSolver:  Solving for rho, Initial residual = 0, Final residual = 0, No Iterations 0
DICPCG:  Solving for T, Initial residual = 9.82763e-07, Final residual = 9.82763e-07, No Iterations 0
ExecutionTime = 2.62 s  ClockTime = 3 s

Iteration = 0.01015

DICPCG:  Solving for phi, Initial residual = 8.84563e-09, Final residual = 8.84563e-09, No Iterations 0
smoothSolver:  Solving for rho, Initial residual = 0, Final residual = 0, No Iterations 0
DICPCG:  Solving for T, Initial residual = 9.82763e-07, Final residual = 9.82763e-07, No Iterations 0
ExecutionTime = 2.63 s  ClockTime = 3 s

Iteration = 0.0102

DICPCG:  Solving for phi, Initial residual = 8.84563e-09, Final residual = 8.84563e-09, No Iterations 0
smoothSolver:  Solving for rho, Initial residual = 0, Final residual = 0, No Iterations 0
DICPCG:  Solving for T, Initial residual = 9.82763e-07, Final residual = 9.82763e-07, No Iterations 0
ExecutionTime = 2.64 s  ClockTime = 3 s

Iteration = 0.01025

DICPCG:  Solving for phi, Initial residual = 8.84563e-09, Final residual = 8.84563e-09, No Iterations 0
smoothSolver:  Solving for rho, Initial residual = 0, Final residual = 0, No Iterations 0
DICPCG:  Solving for T, Initial residual = 9.82763e-07, Final residual = 9.82763e-07, No Iterations 0
ExecutionTime = 2.65 s  ClockTime = 3 s

Iteration = 0.0103

DICPCG:  Solving for phi, Initial residual = 8.84563e-09, Final residual = 8.84563e-09, No Iterations 0
smoothSolver:  Solving for rho, Initial residual = 0, Final residual = 0, No Iterations 0
DICPCG:  Solving for T, Initial residual = 9.82763e-07, Final residual = 9.82763e-07, No Iterations 0
ExecutionTime = 2.66 s  ClockTime = 3 s

Iteration = 0.01035

DICPCG:  Solving for phi, Initial residual = 8.84563e-09, Final residual = 8.84563e-09, No Iterations 0
smoothSolver:  Solving for rho, Initial residual = 0, Final residual = 0, No Iterations 0
DICPCG:  Solving for T, Initial residual = 9.82763e-07, Final residual = 9.82763e-07, No Iterations 0
ExecutionTime = 2.67 s  ClockTime = 3 s

Iteration = 0.0104

DICPCG:  Solving for phi, Initial residual = 8.84563e-09, Final residual = 8.84563e-09, No Iterations 0
smoothSolver:  Solving for rho, Initial residual = 0, Final residual = 0, No Iterations 0
DICPCG:  Solving for T, Initial residual = 9.82763e-07, Final residual = 9.82763e-07, No Iterations 0
ExecutionTime = 2.68 s  ClockTime = 3 s

Iteration = 0.01045

DICPCG:  Solving for phi, Initial residual = 8.84563e-09, Final residual = 8.84563e-09, No Iterations 0
smoothSolver:  Solving for rho, Initial residual = 0, Final residual = 0, No Iterations 0
DICPCG:  Solving for T, Initial residual = 9.82763e-07, Final residual = 9.82763e-07, No Iterations 0
ExecutionTime = 2.69 s  ClockTime = 3 s

Iteration = 0.0105

DICPCG:  Solving for phi, Initial residual = 8.84563e-09, Final residual = 8.84563e-09, No Iterations 0
smoothSolver:  Solving for rho, Initial residual = 0, Final residual = 0, No Iterations 0
DICPCG:  Solving for T, Initial residual = 9.82763e-07, Final residual = 9.82763e-07, No Iterations 0
ExecutionTime = 2.69 s  ClockTime = 3 s

Iteration = 0.01055

DICPCG:  Solving for phi, Initial residual = 8.84563e-09, Final residual = 8.84563e-09, No Iterations 0
smoothSolver:  Solving for rho, Initial residual = 0, Final residual = 0, No Iterations 0
DICPCG:  Solving for T, Initial residual = 9.82763e-07, Final residual = 9.82763e-07, No Iterations 0
ExecutionTime = 2.7 s  ClockTime = 3 s

Iteration = 0.0106

DICPCG:  Solving for phi, Initial residual = 8.84563e-09, Final residual = 8.84563e-09, No Iterations 0
smoothSolver:  Solving for rho, Initial residual = 0, Final residual = 0, No Iterations 0
DICPCG:  Solving for T, Initial residual = 9.82763e-07, Final residual = 9.82763e-07, No Iterations 0
ExecutionTime = 2.71 s  ClockTime = 3 s

Iteration = 0.01065

DICPCG:  Solving for phi, Initial residual = 8.84563e-09, Final residual = 8.84563e-09, No Iterations 0
smoothSolver:  Solving for rho, Initial residual = 0, Final residual = 0, No Iterations 0
DICPCG:  Solving for T, Initial residual = 9.82763e-07, Final residual = 9.82763e-07, No Iterations 0
ExecutionTime = 2.72 s  ClockTime = 3 s

Iteration = 0.0107

DICPCG:  Solving for phi, Initial residual = 8.84563e-09, Final residual = 8.84563e-09, No Iterations 0
smoothSolver:  Solving for rho, Initial residual = 0, Final residual = 0, No Iterations 0
DICPCG:  Solving for T, Initial residual = 9.82763e-07, Final residual = 9.82763e-07, No Iterations 0
ExecutionTime = 2.73 s  ClockTime = 3 s

Iteration = 0.01075

DICPCG:  Solving for phi, Initial residual = 8.84563e-09, Final residual = 8.84563e-09, No Iterations 0
smoothSolver:  Solving for rho, Initial residual = 0, Final residual = 0, No Iterations 0
DICPCG:  Solving for T, Initial residual = 9.82763e-07, Final residual = 9.82763e-07, No Iterations 0
ExecutionTime = 2.74 s  ClockTime = 3 s

Iteration = 0.0108

DICPCG:  Solving for phi, Initial residual = 8.84563e-09, Final residual = 8.84563e-09, No Iterations 0
smoothSolver:  Solving for rho, Initial residual = 0, Final residual = 0, No Iterations 0
DICPCG:  Solving for T, Initial residual = 9.82763e-07, Final residual = 9.82763e-07, No Iterations 0
ExecutionTime = 2.75 s  ClockTime = 3 s

Iteration = 0.01085

DICPCG:  Solving for phi, Initial residual = 8.84563e-09, Final residual = 8.84563e-09, No Iterations 0
smoothSolver:  Solving for rho, Initial residual = 0, Final residual = 0, No Iterations 0
DICPCG:  Solving for T, Initial residual = 9.82763e-07, Final residual = 9.82763e-07, No Iterations 0
ExecutionTime = 2.76 s  ClockTime = 3 s

Iteration = 0.0109

DICPCG:  Solving for phi, Initial residual = 8.84563e-09, Final residual = 8.84563e-09, No Iterations 0
smoothSolver:  Solving for rho, Initial residual = 0, Final residual = 0, No Iterations 0
DICPCG:  Solving for T, Initial residual = 9.82763e-07, Final residual = 9.82763e-07, No Iterations 0
ExecutionTime = 2.76 s  ClockTime = 3 s

Iteration = 0.01095

DICPCG:  Solving for phi, Initial residual = 8.84563e-09, Final residual = 8.84563e-09, No Iterations 0
smoothSolver:  Solving for rho, Initial residual = 0, Final residual = 0, No Iterations 0
DICPCG:  Solving for T, Initial residual = 9.82763e-07, Final residual = 9.82763e-07, No Iterations 0
ExecutionTime = 2.77 s  ClockTime = 3 s

Iteration = 0.011

DICPCG:  Solving for phi, Initial residual = 8.84563e-09, Final residual = 8.84563e-09, No Iterations 0
smoothSolver:  Solving for rho, Initial residual = 0, Final residual = 0, No Iterations 0
DICPCG:  Solving for T, Initial residual = 9.82763e-07, Final residual = 9.82763e-07, No Iterations 0
ExecutionTime = 2.78 s  ClockTime = 3 s

Iteration = 0.01105

DICPCG:  Solving for phi, Initial residual = 8.84563e-09, Final residual = 8.84563e-09, No Iterations 0
smoothSolver:  Solving for rho, Initial residual = 0, Final residual = 0, No Iterations 0
[...]

Iteration = 0.46265

DICPCG:  Solving for phi, Initial residual = 8.84563e-09, Final residual = 8.84563e-09, No Iterations 0
smoothSolver:  Solving for rho, Initial residual = 0, Final residual = 0, No Iterations 0
DICPCG:  Solving for T, Initial residual = 9.82763e-07, Final residual = 9.82763e-07, No Iterations 0
ExecutionTime = 89.16 s  ClockTime = 90 s

Iteration = 0.4627

DICPCG:  Solving for phi, Initial residual = 8.84563e-09, Final residual = 8.84563e-09, No Iterations 0
smoothSolver:  Solving for rho, Initial residual = 0, Final residual = 0, No Iterations 0
DICPCG:  Solving for T, Initial residual = 9.82763e-07, Final residual = 9.82763e-07, No Iterations 0
ExecutionTime = 89.17 s  ClockTime = 90 s

Iteration = 0.46275

DICPCG:  Solving for phi, Initial residual = 8.84563e-09, Final residual = 8.84563e-09, No Iterations 0
smoothSolver:  Solving for rho, Initial residual = 0, Final residual = 0, No Iterations 0
DICPCG:  Solving for T, Initial residual = 9.82763e-07, Final residual = 9.82763e-07, No Iterations 0
ExecutionTime = 89.18 s  ClockTime = 90 s

Iteration = 0.4628

DICPCG:  Solving for phi, Initial residual = 8.84563e-09, Final residual = 8.84563e-09, No Iterations 0
smoothSolver:  Solving for rho, Initial residual = 0, Final residual = 0, No Iterations 0
DICPCG:  Solving for T, Initial residual = 9.82763e-07, Final residual = 9.82763e-07, No Iterations 0
ExecutionTime = 89.18 s  ClockTime = 90 s

Iteration = 0.46285

DICPCG:  Solving for phi, Initial residual = 8.84563e-09, Final residual = 8.84563e-09, No Iterations 0
smoothSolver:  Solving for rho, Initial residual = 0, Final residual = 0, No Iterations 0
DICPCG:  Solving for T, Initial residual = 9.82763e-07, Final residual = 9.82763e-07, No Iterations 0
ExecutionTime = 89.19 s  ClockTime = 90 s

Iteration = 0.4629

DICPCG:  Solving for phi, Initial residual = 8.84563e-09, Final residual = 8.84563e-09, No Iterations 0
smoothSolver:  Solving for rho, Initial residual = 0, Final residual = 0, No Iterations 0
DICPCG:  Solving for T, Initial residual = 9.82763e-07, Final residual = 9.82763e-07, No Iterations 0
ExecutionTime = 89.2 s  ClockTime = 90 s

Iteration = 0.46295

DICPCG:  Solving for phi, Initial residual = 8.84563e-09, Final residual = 8.84563e-09, No Iterations 0
smoothSolver:  Solving for rho, Initial residual = 0, Final residual = 0, No Iterations 0
DICPCG:  Solving for T, Initial residual = 9.82763e-07, Final residual = 9.82763e-07, No Iterations 0
ExecutionTime = 89.22 s  ClockTime = 90 s

Iteration = 0.463

DICPCG:  Solving for phi, Initial residual = 8.84563e-09, Final residual = 8.84563e-09, No Iterations 0
smoothSolver:  Solving for rho, Initial residual = 0, Final residual = 0, No Iterations 0
DICPCG:  Solving for T, Initial residual = 9.82763e-07, Final residual = 9.82763e-07, No Iterations 0
ExecutionTime = 89.23 s  ClockTime = 90 s

Iteration = 0.46305

DICPCG:  Solving for phi, Initial residual = 8.84563e-09, Final residual = 8.84563e-09, No Iterations 0
smoothSolver:  Solving for rho, Initial residual = 0, Final residual = 0, No Iterations 0
DICPCG:  Solving for T, Initial residual = 9.82763e-07, Final residual = 9.82763e-07, No Iterations 0
ExecutionTime = 89.24 s  ClockTime = 90 s

Iteration = 0.4631

DICPCG:  Solving for phi, Initial residual = 8.84563e-09, Final residual = 8.84563e-09, No Iterations 0
smoothSolver:  Solving for rho, Initial residual = 0, Final residual = 0, No Iterations 0
DICPCG:  Solving for T, Initial residual = 9.82763e-07, Final residual = 9.82763e-07, No Iterations 0
ExecutionTime = 89.25 s  ClockTime = 90 s

Iteration = 0.46315

DICPCG:  Solving for phi, Initial residual = 8.84563e-09, Final residual = 8.84563e-09, No Iterations 0
smoothSolver:  Solving for rho, Initial residual = 0, Final residual = 0, No Iterations 0
DICPCG:  Solving for T, Initial residual = 9.82763e-07, Final residual = 9.82763e-07, No Iterations 0
ExecutionTime = 89.26 s  ClockTime = 90 s

Iteration = 0.4632

DICPCG:  Solving for phi, Initial residual = 8.84563e-09, Final residual = 8.84563e-09, No Iterations 0
smoothSolver:  Solving for rho, Initial residual = 0, Final residual = 0, No Iterations 0
DICPCG:  Solving for T, Initial residual = 9.82763e-07, Final residual = 9.82763e-07, No Iterations 0
ExecutionTime = 89.27 s  ClockTime = 90 s

Iteration = 0.46325

DICPCG:  Solving for phi, Initial residual = 8.84563e-09, Final residual = 8.84563e-09, No Iterations 0
smoothSolver:  Solving for rho, Initial residual = 0, Final residual = 0, No Iterations 0
DICPCG:  Solving for T, Initial residual = 9.82763e-07, Final residual = 9.82763e-07, No Iterations 0
ExecutionTime = 89.28 s  ClockTime = 90 s

Iteration = 0.4633

DICPCG:  Solving for phi, Initial residual = 8.84563e-09, Final residual = 8.84563e-09, No Iterations 0
smoothSolver:  Solving for rho, Initial residual = 0, Final residual = 0, No Iterations 0
DICPCG:  Solving for T, Initial residual = 9.82763e-07, Final residual = 9.82763e-07, No Iterations 0
ExecutionTime = 89.29 s  ClockTime = 90 s

Iteration = 0.46335

DICPCG:  Solving for phi, Initial residual = 8.84563e-09, Final residual = 8.84563e-09, No Iterations 0
smoothSolver:  Solving for rho, Initial residual = 0, Final residual = 0, No Iterations 0
DICPCG:  Solving for T, Initial residual = 9.82763e-07, Final residual = 9.82763e-07, No Iterations 0
ExecutionTime = 89.3 s  ClockTime = 90 s

Iteration = 0.4634

DICPCG:  Solving for phi, Initial residual = 8.84563e-09, Final residual = 8.84563e-09, No Iterations 0
smoothSolver:  Solving for rho, Initial residual = 0, Final residual = 0, No Iterations 0
DICPCG:  Solving for T, Initial residual = 9.82763e-07, Final residual = 9.82763e-07, No Iterations 0
ExecutionTime = 89.31 s  ClockTime = 90 s

Iteration = 0.46345

DICPCG:  Solving for phi, Initial residual = 8.84563e-09, Final residual = 8.84563e-09, No Iterations 0
smoothSolver:  Solving for rho, Initial residual = 0, Final residual = 0, No Iterations 0
DICPCG:  Solving for T, Initial residual = 9.82763e-07, Final residual = 9.82763e-07, No Iterations 0
ExecutionTime = 89.32 s  ClockTime = 90 s

Iteration = 0.4635

DICPCG:  Solving for phi, Initial residual = 8.84563e-09, Final residual = 8.84563e-09, No Iterations 0
smoothSolver:  Solving for rho, Initial residual = 0, Final residual = 0, No Iterations 0
DICPCG:  Solving for T, Initial residual = 9.82763e-07, Final residual = 9.82763e-07, No Iterations 0
ExecutionTime = 89.33 s  ClockTime = 90 s

Iteration = 0.46355

DICPCG:  Solving for phi, Initial residual = 8.84563e-09, Final residual = 8.84563e-09, No Iterations 0
smoothSolver:  Solving for rho, Initial residual = 0, Final residual = 0, No Iterations 0
DICPCG:  Solving for T, Initial residual = 9.82763e-07, Final residual = 9.82763e-07, No Iterations 0
ExecutionTime = 89.33 s  ClockTime = 90 s

Iteration = 0.4636

DICPCG:  Solving for phi, Initial residual = 8.84563e-09, Final residual = 8.84563e-09, No Iterations 0
smoothSolver:  Solving for rho, Initial residual = 0, Final residual = 0, No Iterations 0
DICPCG:  Solving for T, Initial residual = 9.82763e-07, Final residual = 9.82763e-07, No Iterations 0
ExecutionTime = 89.34 s  ClockTime = 90 s

Iteration = 0.46365

DICPCG:  Solving for phi, Initial residual = 8.84563e-09, Final residual = 8.84563e-09, No Iterations 0
smoothSolver:  Solving for rho, Initial residual = 0, Final residual = 0, No Iterations 0
DICPCG:  Solving for T, Initial residual = 9.82763e-07, Final residual = 9.82763e-07, No Iterations 0
ExecutionTime = 89.35 s  ClockTime = 90 s

Iteration = 0.4637

DICPCG:  Solving for phi, Initial residual = 8.84563e-09, Final residual = 8.84563e-09, No Iterations 0
smoothSolver:  Solving for rho, Initial residual = 0, Final residual = 0, No Iterations 0
DICPCG:  Solving for T, Initial residual = 9.82763e-07, Final residual = 9.82763e-07, No Iterations 0
ExecutionTime = 89.36 s  ClockTime = 90 s

Iteration = 0.46375

DICPCG:  Solving for phi, Initial residual = 8.84563e-09, Final residual = 8.84563e-09, No Iterations 0
smoothSolver:  Solving for rho, Initial residual = 0, Final residual = 0, No Iterations 0
DICPCG:  Solving for T, Initial residual = 9.82763e-07, Final residual = 9.82763e-07, No Iterations 0
ExecutionTime = 89.37 s  ClockTime = 90 s

Iteration = 0.4638

DICPCG:  Solving for phi, Initial residual = 8.84563e-09, Final residual = 8.84563e-09, No Iterations 0
smoothSolver:  Solving for rho, Initial residual = 0, Final residual = 0, No Iterations 0
DICPCG:  Solving for T, Initial residual = 9.82763e-07, Final residual = 9.82763e-07, No Iterations 0
ExecutionTime = 89.38 s  ClockTime = 90 s

Iteration = 0.46385

DICPCG:  Solving for phi, Initial residual = 8.84563e-09, Final residual = 8.84563e-09, No Iterations 0
smoothSolver:  Solving for rho, Initial residual = 0, Final residual = 0, No Iterations 0
DICPCG:  Solving for T, Initial residual = 9.82763e-07, Final residual = 9.82763e-07, No Iterations 0
ExecutionTime = 89.39 s  ClockTime = 90 s

Iteration = 0.4639

DICPCG:  Solving for phi, Initial residual = 8.84563e-09, Final residual = 8.84563e-09, No Iterations 0
smoothSolver:  Solving for rho, Initial residual = 0, Final residual = 0, No Iterations 0
DICPCG:  Solving for T, Initial residual = 9.82763e-07, Final residual = 9.82763e-07, No Iterations 0
ExecutionTime = 89.4 s  ClockTime = 90 s

Iteration = 0.46395

DICPCG:  Solving for phi, Initial residual = 8.84563e-09, Final residual = 8.84563e-09, No Iterations 0
smoothSolver:  Solving for rho, Initial residual = 0, Final residual = 0, No Iterations 0
DICPCG:  Solving for T, Initial residual = 9.82763e-07, Final residual = 9.82763e-07, No Iterations 0
ExecutionTime = 89.41 s  ClockTime = 90 s

Iteration = 0.464

DICPCG:  Solving for phi, Initial residual = 8.84563e-09, Final residual = 8.84563e-09, No Iterations 0
smoothSolver:  Solving for rho, Initial residual = 0, Final residual = 0, No Iterations 0
DICPCG:  Solving for T, Initial residual = 9.82763e-07, Final residual = 9.82763e-07, No Iterations 0
ExecutionTime = 89.41 s  ClockTime = 90 s

Iteration = 0.46405

DICPCG:  Solving for phi, Initial residual = 8.84563e-09, Final residual = 8.84563e-09, No Iterations 0
smoothSolver:  Solving for rho, Initial residual = 0, Final residual = 0, No Iterations 0
DICPCG:  Solving for T, Initial residual = 9.82763e-07, Final residual = 9.82763e-07, No Iterations 0
ExecutionTime = 89.42 s  ClockTime = 90 s

Iteration = 0.4641

DICPCG:  Solving for phi, Initial residual = 8.84563e-09, Final residual = 8.84563e-09, No Iterations 0
smoothSolver:  Solving for rho, Initial residual = 0, Final residual = 0, No Iterations 0
DICPCG:  Solving for T, Initial residual = 9.82763e-07, Final residual = 9.82763e-07, No Iterations 0
ExecutionTime = 89.43 s  ClockTime = 90 s

Iteration = 0.46415

DICPCG:  Solving for phi, Initial residual = 8.84563e-09, Final residual = 8.84563e-09, No Iterations 0
smoothSolver:  Solving for rho, Initial residual = 0, Final residual = 0, No Iterations 0
DICPCG:  Solving for T, Initial residual = 9.82763e-07, Final residual = 9.82763e-07, No Iterations 0
ExecutionTime = 89.44 s  ClockTime = 90 s

Iteration = 0.4642

DICPCG:  Solving for phi, Initial residual = 8.84563e-09, Final residual = 8.84563e-09, No Iterations 0
smoothSolver:  Solving for rho, Initial residual = 0, Final residual = 0, No Iterations 0
DICPCG:  Solving for T, Initial residual = 9.82763e-07, Final residual = 9.82763e-07, No Iterations 0
ExecutionTime = 89.45 s  ClockTime = 90 s

Iteration = 0.46425

DICPCG:  Solving for phi, Initial residual = 8.84563e-09, Final residual = 8.84563e-09, No Iterations 0
smoothSolver:  Solving for rho, Initial residual = 0, Final residual = 0, No Iterations 0
DICPCG:  Solving for T, Initial residual = 9.82763e-07, Final residual = 9.82763e-07, No Iterations 0
ExecutionTime = 89.46 s  ClockTime = 90 s

Iteration = 0.4643

DICPCG:  Solving for phi, Initial residual = 8.84563e-09, Final residual = 8.84563e-09, No Iterations 0
smoothSolver:  Solving for rho, Initial residual = 0, Final residual = 0, No Iterations 0
DICPCG:  Solving for T, Initial residual = 9.82763e-07, Final residual = 9.82763e-07, No Iterations 0
ExecutionTime = 89.47 s  ClockTime = 90 s

Iteration = 0.46435

DICPCG:  Solving for phi, Initial residual = 8.84563e-09, Final residual = 8.84563e-09, No Iterations 0
smoothSolver:  Solving for rho, Initial residual = 0, Final residual = 0, No Iterations 0
DICPCG:  Solving for T, Initial residual = 9.82763e-07, Final residual = 9.82763e-07, No Iterations 0
ExecutionTime = 89.48 s  ClockTime = 90 s

Iteration = 0.4644

DICPCG:  Solving for phi, Initial residual = 8.84563e-09, Final residual = 8.84563e-09, No Iterations 0
smoothSolver:  Solving for rho, Initial residual = 0, Final residual = 0, No Iterations 0
DICPCG:  Solving for T, Initial residual = 9.82763e-07, Final residual = 9.82763e-07, No Iterations 0
ExecutionTime = 89.48 s  ClockTime = 90 s

Iteration = 0.46445

DICPCG:  Solving for phi, Initial residual = 8.84563e-09, Final residual = 8.84563e-09, No Iterations 0
smoothSolver:  Solving for rho, Initial residual = 0, Final residual = 0, No Iterations 0
DICPCG:  Solving for T, Initial residual = 9.82763e-07, Final residual = 9.82763e-07, No Iterations 0
ExecutionTime = 89.49 s  ClockTime = 90 s

Iteration = 0.4645

DICPCG:  Solving for phi, Initial residual = 8.84563e-09, Final residual = 8.84563e-09, No Iterations 0
smoothSolver:  Solving for rho, Initial residual = 0, Final residual = 0, No Iterations 0
DICPCG:  Solving for T, Initial residual = 9.82763e-07, Final residual = 9.82763e-07, No Iterations 0
ExecutionTime = 89.5 s  ClockTime = 90 s

Iteration = 0.46455

DICPCG:  Solving for phi, Initial residual = 8.84563e-09, Final residual = 8.84563e-09, No Iterations 0
smoothSolver:  Solving for rho, Initial residual = 0, Final residual = 0, No Iterations 0
DICPCG:  Solving for T, Initial residual = 9.82763e-07, Final residual = 9.82763e-07, No Iterations 0
ExecutionTime = 89.51 s  ClockTime = 90 s

Iteration = 0.4646

DICPCG:  Solving for phi, Initial residual = 8.84563e-09, Final residual = 8.84563e-09, No Iterations 0
smoothSolver:  Solving for rho, Initial residual = 0, Final residual = 0, No Iterations 0
DICPCG:  Solving for T, Initial residual = 9.82763e-07, Final residual = 9.82763e-07, No Iterations 0
ExecutionTime = 89.52 s  ClockTime = 90 s

Iteration = 0.46465

DICPCG:  Solving for phi, Initial residual = 8.84563e-09, Final residual = 8.84563e-09, No Iterations 0
smoothSolver:  Solving for rho, Initial residual = 0, Final residual = 0, No Iterations 0
DICPCG:  Solving for T, Initial residual = 9.82763e-07, Final residual = 9.82763e-07, No Iterations 0
ExecutionTime = 89.53 s  ClockTime = 90 s

Iteration = 0.4647

DICPCG:  Solving for phi, Initial residual = 8.84563e-09, Final residual = 8.84563e-09, No Iterations 0
smoothSolver:  Solving for rho, Initial residual = 0, Final residual = 0, No Iterations 0
DICPCG:  Solving for T, Initial residual = 9.82763e-07, Final residual = 9.82763e-07, No Iterations 0
ExecutionTime = 89.55 s  ClockTime = 90 s

Iteration = 0.46475

DICPCG:  Solving for phi, Initial residual = 8.84563e-09, Final residual = 8.84563e-09, No Iterations 0
smoothSolver:  Solving for rho, Initial residual = 0, Final residual = 0, No Iterations 0
DICPCG:  Solving for T, Initial residual = 9.82763e-07, Final residual = 9.82763e-07, No Iterations 0
ExecutionTime = 89.56 s  ClockTime = 90 s

Iteration = 0.4648

DICPCG:  Solving for phi, Initial residual = 8.84563e-09, Final residual = 8.84563e-09, No Iterations 0
smoothSolver:  Solving for rho, Initial residual = 0, Final residual = 0, No Iterations 0
DICPCG:  Solving for T, Initial residual = 9.82763e-07, Final residual = 9.82763e-07, No Iterations 0
ExecutionTime = 89.56 s  ClockTime = 90 s

Iteration = 0.46485

DICPCG:  Solving for phi, Initial residual = 8.84563e-09, Final residual = 8.84563e-09, No Iterations 0
smoothSolver:  Solving for rho, Initial residual = 0, Final residual = 0, No Iterations 0
DICPCG:  Solving for T, Initial residual = 9.82763e-07, Final residual = 9.82763e-07, No Iterations 0
ExecutionTime = 89.57 s  ClockTime = 90 s

Iteration = 0.4649

DICPCG:  Solving for phi, Initial residual = 8.84563e-09, Final residual = 8.84563e-09, No Iterations 0
smoothSolver:  Solving for rho, Initial residual = 0, Final residual = 0, No Iterations 0
DICPCG:  Solving for T, Initial residual = 9.82763e-07, Final residual = 9.82763e-07, No Iterations 0
ExecutionTime = 89.58 s  ClockTime = 90 s

Iteration = 0.46495

DICPCG:  Solving for phi, Initial residual = 8.84563e-09, Final residual = 8.84563e-09, No Iterations 0
smoothSolver:  Solving for rho, Initial residual = 0, Final residual = 0, No Iterations 0
DICPCG:  Solving for T, Initial residual = 9.82763e-07, Final residual = 9.82763e-07, No Iterations 0
ExecutionTime = 89.59 s  ClockTime = 90 s

Iteration = 0.465

DICPCG:  Solving for phi, Initial residual = 8.84563e-09, Final residual = 8.84563e-09, No Iterations 0
smoothSolver:  Solving for rho, Initial residual = 0, Final residual = 0, No Iterations 0
DICPCG:  Solving for T, Initial residual = 9.82763e-07, Final residual = 9.82763e-07, No Iterations 0
ExecutionTime = 89.6 s  ClockTime = 90 s

Iteration = 0.46505

DICPCG:  Solving for phi, Initial residual = 8.84563e-09, Final residual = 8.84563e-09, No Iterations 0
smoothSolver:  Solving for rho, Initial residual = 0, Final residual = 0, No Iterations 0
DICPCG:  Solving for T, Initial residual = 9.82763e-07, Final residual = 9.82763e-07, No Iterations 0
ExecutionTime = 89.61 s  ClockTime = 90 s

Iteration = 0.4651

DICPCG:  Solving for phi, Initial residual = 8.84563e-09, Final residual = 8.84563e-09, No Iterations 0
smoothSolver:  Solving for rho, Initial residual = 0, Final residual = 0, No Iterations 0
DICPCG:  Solving for T, Initial residual = 9.82763e-07, Final residual = 9.82763e-07, No Iterations 0
ExecutionTime = 89.62 s  ClockTime = 90 s

Iteration = 0.46515

DICPCG:  Solving for phi, Initial residual = 8.84563e-09, Final residual = 8.84563e-09, No Iterations 0
smoothSolver:  Solving for rho, Initial residual = 0, Final residual = 0, No Iterations 0
DICPCG:  Solving for T, Initial residual = 9.82763e-07, Final residual = 9.82763e-07, No Iterations 0
ExecutionTime = 89.63 s  ClockTime = 90 s

Iteration = 0.4652

DICPCG:  Solving for phi, Initial residual = 8.84563e-09, Final residual = 8.84563e-09, No Iterations 0
smoothSolver:  Solving for rho, Initial residual = 0, Final residual = 0, No Iterations 0
DICPCG:  Solving for T, Initial residual = 9.82763e-07, Final residual = 9.82763e-07, No Iterations 0
ExecutionTime = 89.63 s  ClockTime = 90 s

Iteration = 0.46525

DICPCG:  Solving for phi, Initial residual = 8.84563e-09, Final residual = 8.84563e-09, No Iterations 0
smoothSolver:  Solving for rho, Initial residual = 0, Final residual = 0, No Iterations 0
DICPCG:  Solving for T, Initial residual = 9.82763e-07, Final residual = 9.82763e-07, No Iterations 0
ExecutionTime = 89.64 s  ClockTime = 90 s

Iteration = 0.4653

DICPCG:  Solving for phi, Initial residual = 8.84563e-09, Final residual = 8.84563e-09, No Iterations 0
smoothSolver:  Solving for rho, Initial residual = 0, Final residual = 0, No Iterations 0
DICPCG:  Solving for T, Initial residual = 9.82763e-07, Final residual = 9.82763e-07, No Iterations 0
ExecutionTime = 89.65 s  ClockTime = 90 s

Iteration = 0.46535

DICPCG:  Solving for phi, Initial residual = 8.84563e-09, Final residual = 8.84563e-09, No Iterations 0
smoothSolver:  Solving for rho, Initial residual = 0, Final residual = 0, No Iterations 0
DICPCG:  Solving for T, Initial residual = 9.82763e-07, Final residual = 9.82763e-07, No Iterations 0
ExecutionTime = 89.66 s  ClockTime = 90 s

Iteration = 0.4654

DICPCG:  Solving for phi, Initial residual = 8.84563e-09, Final residual = 8.84563e-09, No Iterations 0
smoothSolver:  Solving for rho, Initial residual = 0, Final residual = 0, No Iterations 0
